24
Properties=species:S:1:pos:R:3 2c24 h20 p=T pbc="F F F" h12=T v,=T c6=T o=T s4=T
V       0.14621695       0.35805859      -0.14641822 
S      -2.21596104       0.58969643       0.08690171 
S       1.90749391      -1.24372156       0.19704814 
S      -0.53209858      -0.92485142      -2.10708567 
S       0.50305671       0.54238688       2.20690637 
O       0.73750279       1.71541990      -0.80133933 
C      -2.70006435       1.89261251       1.28057667 
H      -3.04828927       2.64735424       0.78090451 
H      -3.42460357       1.54837936       1.82775070 
C      -1.60149297       2.40358911       2.21092720 
H      -0.92629706       2.85750686       1.68266771 
H      -1.98282249       3.05060208       2.82487007 
C      -0.94052359       1.29078565       3.01284694 
H      -1.59658410       0.59731483       3.17951388 
H      -0.66553142       1.64833319       3.87191819 
C       2.53870398      -1.44022928      -1.50432258 
C       0.30939838      -2.54590191      -2.11666357 
C       1.81560514      -2.49625872      -2.32680364 
H       2.46744618      -0.58878095      -1.96163818 
H       3.48014729      -1.67182947      -1.46109810 
H       0.13105016      -2.98976913      -1.27120142 
H      -0.08025859      -3.09076895      -2.81786322 
H       1.99059966      -2.33080485      -3.26558589 
H       2.18645643      -3.36454603      -2.10962970 
