24
Properties=species:S:1:pos:R:3 2c24 h20 p=T pbc="F F F" h12=T v,=T c6=T o=T s4=T
V      -0.23238548       0.01238958      -0.34185834 
S      -1.17702254      -1.62840654       1.10846165 
S       1.58443046       1.58515569      -0.44840369 
S       1.39099060      -1.76944660      -0.71588614 
S      -1.08837374       1.81572175       0.96761689 
O      -1.06952774       0.02229424      -1.72752247 
C      -2.88484529      -1.22813519       1.63754628 
H      -3.49342055      -1.82427279       1.17405513 
H      -2.96041880      -1.41783067       2.58683931 
C      -3.35083417       0.20706776       1.39973310 
H      -3.39405797       0.37076240       0.44457620 
H      -4.24527487       0.31279463       1.75995733 
C      -2.43431997       1.24039230       2.04045881 
H      -2.04887785       0.85746569       2.84289051 
H      -2.96769992       2.00598465       2.30661388 
C       2.50785037       0.95611510      -1.89177038 
C       3.08741406      -1.12406241      -0.51182676 
C       3.53273852      -0.11950195      -1.56436014 
H       1.87517549       0.59677362      -2.53190761 
H       2.96398153       1.70003174      -2.31645249 
H       3.15355830      -0.70432734       0.36171766 
H       3.70447085      -1.87208878      -0.52136992 
H       3.74752104      -0.60028418      -2.37801061 
H       4.34457136       0.31056021      -1.25680198 
