24
Properties=species:S:1:pos:R:3 2c24 h20 p=T pbc="F F F" h12=T v,=T c6=T o=T s4=T
V      -0.17229264       0.17694886      -0.33170467 
S      -1.93135112      -0.37793981       1.18017859 
S       2.22092180       0.05100961      -0.53768827 
S      -0.25666824      -2.22462816      -0.75062644 
S       0.51651799       2.04299028       0.98847620 
O      -0.82328416       0.79245813      -1.68015887 
C      -2.86006849       1.08446354       1.77655658 
H      -3.72998645       1.08669989       1.34783094 
H      -3.00766463       0.98139371       2.73072898 
C      -2.20883776       2.44575961       1.53932294 
H      -2.16492968       2.61264054       0.58474880 
H      -2.76397701       3.13520012       1.93613024 
C      -0.80700678       2.54111774       2.12589266 
H      -0.76317033       1.98203595       2.91620967 
H      -0.64849219       3.45702787       2.40418408 
C       2.39000285      -1.01370384      -2.01061075 
C       1.41904663      -2.94091358      -0.62844450 
C       2.39372554      -2.50562715      -1.71279170 
H       1.65992868      -0.82074435      -2.61801328 
H       3.21696827      -0.78608343      -2.46463681 
H       1.79315176      -2.70202442       0.23562132 
H       1.34325097      -3.90734225      -0.65421759 
H       2.18165395      -2.98454989      -2.52824791 
H       3.28823687      -2.76532835      -1.44629062 
