24
Properties=species:S:1:pos:R:3 2c24 h20 p=T pbc="F F F" h12=T v,=T c6=T o=T s4=T
V      -0.34029932       0.11508434      -0.20487950 
S       1.40677620      -0.14820143      -1.80687415 
S      -0.75150136      -0.07863524       2.15714314 
S       0.87782745       2.17771870       0.25543946 
S      -0.61811182      -2.24372116       0.03658484 
O      -1.66468683       0.65100093      -0.96630020 
C       1.06139068      -1.45375278      -3.04503840 
H       0.85583140      -1.02379678      -3.88969877 
H       1.87251241      -1.97183705      -3.17358107 
C      -0.07416298      -2.42044140      -2.71407124 
H      -0.91160254      -1.93104369      -2.70088751 
H      -0.13271257      -3.09048781      -3.41305164 
C       0.11500385      -3.11865994      -1.37429734 
H       1.06435108      -3.22675709      -1.21258805 
H      -0.27716584      -4.00455673      -1.42772174 
C      -1.21843676       1.63621600       2.57302813 
C       1.19109954       2.33326425       2.04811337 
C      -0.04549605       2.54495708       2.90910096 
H      -1.70040329       2.01672916       1.82329652 
H      -1.82357634       1.61768330       3.33150367 
H       1.64370947       1.52922603       2.35192125 
H       1.79565670       3.07782585       2.19140419 
H      -0.33143860       3.46637066       2.81666690 
H       0.19680760       2.40647145       3.83685563 
