24
Properties=species:S:1:pos:R:3 2c24 h20 p=T pbc="F F F" h12=T v,=T c6=T o=T s4=T
V       0.37161753      -0.14910353      -0.10340306 
S      -1.18199507      -1.95521193      -0.21403526 
S       0.46766843       2.20245374       0.39330405 
S       0.13972029      -0.56549821       2.28888162 
S      -0.42466556       0.79991722      -2.14417278 
O       1.85331858      -0.72053538      -0.41804249 
C      -1.34140465      -2.66966283      -1.89360506 
H      -0.90260054      -3.53453203      -1.89809361 
H      -2.28400547      -2.82218705      -2.06993723 
C      -0.76992017      -1.83984000      -3.04178092 
H       0.19300900      -1.78127162      -2.94016347 
H      -0.95313470      -2.29190575      -3.88025145 
C      -1.35023307      -0.43342519      -3.10112434 
H      -2.26160201      -0.46021822      -2.77281984 
H      -1.37964744      -0.14851386      -4.02817594 
C       1.59929528       2.21184515       1.82544798 
C      -0.21661321       0.99708055       3.16488825 
C       0.91584647       2.01334341       3.17008176 
H       2.25691616       1.51019001       1.70547167 
H       2.07344404       3.05847122       1.84060593 
H      -0.99657547       1.40747395       2.75639276 
H      -0.44633955       0.78924124       4.08381275 
H       1.58052754       1.73092250       3.81641579 
H       0.56425900       2.86593224       3.46689246 
