24
Properties=species:S:1:pos:R:3 2c24 h20 p=T pbc="F F F" h12=T v,=T c6=T o=T s4=T
V      -0.32338330       0.20296887      -0.15890414 
S      -1.11580320      -1.06775626       1.69724982 
S       1.70167193       0.67945404      -1.36633054 
S      -0.34420013      -1.99526810      -1.21602654 
S       0.70174782       1.82916789       1.25673392 
O      -1.58380394       0.94112832      -0.85706656 
C      -1.80828477      -0.03121721       3.03995689 
H      -2.77286496      -0.13179364       3.03384478 
H      -1.48623238      -0.37836173       3.88767496 
C      -1.48474631       1.46058518       2.98201925 
H      -1.90485876       1.84443834       2.19642952 
H      -1.86100363       1.89619510       3.76281260 
C       0.01118826       1.73992503       2.93265999 
H       0.47296157       1.04204045       3.42134964 
H       0.18520379       2.58048108       3.38504089 
C       1.27880103       0.04325462      -3.02408030 
C       1.26164786      -2.31648766      -2.02478101 
C       1.57346800      -1.43562308      -3.22566731 
H       0.33506711       0.19571653      -3.18314359 
H       1.77352381       0.55113629      -3.68674771 
H       1.96619767      -2.19981973      -1.36627468 
H       1.28249020      -3.24297343      -2.31040896 
H       1.05880121      -1.75333976      -3.98295483 
H       2.51116767      -1.53647338      -3.44740274 
