24
Properties=species:S:1:pos:R:3 2c24 h20 p=T pbc="F F F" h12=T v,=T c6=T o=T s4=T
V      -0.25592298      -0.12732911       0.29885510 
S       1.95352016      -0.77234664       0.92358908 
S      -1.44247919       1.00563159      -1.46019286 
S      -0.00316308      -2.03167923      -1.20439137 
S       0.14076445       2.16005965       0.85557758 
O      -1.29267711      -0.68962873       1.40787734 
C       2.52101791       0.00767639       2.48125290 
H       2.52567845      -0.66964726       3.17535584 
H       3.43821190       0.30110112       2.35671337 
C       1.70392951       1.19717665       2.98221591 
H       0.81595986       0.89069445       3.22422319 
H       2.12274765       1.55444150       3.78091299 
C       1.58198688       2.30839691       1.94848150 
H       2.38399643       2.31493007       1.40457613 
H       1.53367272       3.15956017       2.41178614 
C      -2.53736556      -0.32665231      -2.05847978 
C      -0.45107881      -1.54859140      -2.90792041 
C      -1.92026061      -1.21798650      -3.12583635 
H      -2.79451727      -0.87856069      -1.30452381 
H      -3.34517401       0.07356453      -2.41777702 
H       0.07902880      -0.77364368      -3.15706771 
H      -0.20724828      -2.27120122      -3.50689898 
H      -2.42050950      -2.04721800      -3.16373541 
H      -2.01425161      -0.78114655      -3.98546104 
