24
Properties=species:S:1:pos:R:3 2c24 h20 p=T pbc="F F F" h12=T v,=T c6=T o=T s4=T
V      -0.16557961      -0.36697973       0.09451410 
S       2.19120203      -0.53905982       0.41692361 
S      -1.84689540       1.21697890      -0.57631940 
S       0.50225230      -0.53133064      -2.24582267 
S      -0.45416607       0.89650226       2.09945283 
O      -0.83341668      -1.81533391       0.37242441 
C       2.65877726      -0.90577547       2.15004197 
H       2.95916189      -1.82683404       2.19463029 
H       3.41415173      -0.34302479       2.38578349 
C       1.57031090      -0.70841699       3.20351190 
H       0.86026230      -1.35077616       3.04796569 
H       1.94391740      -0.88537919       4.08104617 
C       0.98217051       0.69593609       3.19045027 
H       1.67147163       1.31792614       2.91280408 
H       0.72023753       0.93130677       4.09458306 
C      -2.52359894       0.40102801      -2.06225353 
C      -0.27106378       0.81090714      -3.21349694 
C      -1.78399281       0.72558714      -3.35151275 
H      -2.50245927      -0.55821090      -1.92589622 
H      -3.45274131       0.66226085      -2.16361609 
H      -0.04743064       1.65900487      -2.79594346 
H       0.11821565       0.81362922      -4.10166794 
H      -1.99570386       0.04599537      -4.00926926 
H      -2.11130995       1.57193359      -3.69089343 
