24
Properties=species:S:1:pos:R:3 2c24 h20 p=T pbc="F F F" h12=T v,=T c6=T o=T s4=T
V       0.39630779      -0.03573138       0.11263679 
S       0.26224847       1.72493073      -1.49050893 
S      -0.99800494      -1.62258216       1.26309841 
S       0.15892670      -1.40051656      -1.89514768 
S      -0.54296543       1.32100735       1.83788287 
O       1.95027362      -0.25884116       0.50808915 
C       0.77655747       3.35154773      -0.82237004 
H       1.64184900       3.57435190      -1.19945994 
H       0.14453473       4.02024888      -1.13259418 
C       0.87749509       3.46020566       0.69799614 
H       1.59129665       2.88169670       1.00912901 
H       1.10936091       4.37180040       0.93505541 
C      -0.41575191       3.07894745       1.40541518 
H      -1.16226123       3.31211863       0.83318264 
H      -0.49206112       3.60449073       2.21747769 
C      -0.28992173      -3.19982284       0.67774913 
C      -1.16912453      -2.63247991      -1.66156730 
C      -0.88215496      -3.71083172      -0.62711673 
H       0.66542013      -3.08632886       0.56104213 
H      -0.42345120      -3.87330379       1.36361779 
H      -1.97996586      -2.16481133      -1.40184654 
H      -1.34290589      -3.06282797      -2.51303321 
H      -0.26923394      -4.35407878      -1.01424876 
H      -1.70814566      -4.17716577      -0.42991132 
