24
Properties=species:S:1:pos:R:3 2c24 h20 p=T pbc="F F F" h12=T v,=T c6=T o=T s4=T
V      -0.15873673       0.11086359      -0.36542518 
S       1.81269184       1.40699703      -0.01687579 
S      -1.48079403      -1.59723714       0.69302732 
S      -1.05950386       1.70027584       1.25092075 
S       1.09643836      -1.85188256      -0.88658853 
O      -0.85232723       0.58503882      -1.74928225 
C       3.10860081       1.10456234      -1.27622459 
H       3.15026379       1.87778560      -1.86014061 
H       3.96391019       1.03872925      -0.82129069 
C       2.93401838      -0.13952225      -2.14529464 
H       2.14224253      -0.03182950      -2.69527848 
H       3.69803771      -0.22126947      -2.73737209 
C       2.80223035      -1.41780337      -1.32864502 
H       3.31803444      -1.31964941      -0.51414702 
H       3.18764209      -2.15060007      -1.83454138 
C      -3.07121223      -0.72725303       0.90610330 
C      -1.91131207       0.80853132       2.59822474 
C      -3.18234355       0.07680591       2.19283725 
H      -3.20037516      -0.12902077       0.15469490 
H      -3.78774264      -1.38148503       0.88642623 
H      -1.29284118       0.16337331       2.97887856 
H      -2.13282025       1.44430200       3.29616699 
H      -3.89340099       0.72741917       2.09080837 
H      -3.43603973      -0.52231249       2.91069061 
