24
Properties=species:S:1:pos:R:3 2c24 h20 p=T pbc="F F F" h12=T v,=T c6=T o=T s4=T
V       0.13924269      -0.38557446      -0.05447429 
S      -0.92051036      -0.30062533       2.08039954 
S       0.63659398       1.01157902      -1.94824544 
S       1.89786473       0.78068398       1.16915827 
S      -1.95027481      -0.38986672      -1.20918047 
O       0.77266557      -1.86123030      -0.25986573 
C      -2.36841226      -1.41537796       2.21348928 
H      -2.12302678      -2.16504892       2.77771205 
H      -3.08094510      -0.93424309       2.66477541 
C      -2.92291420      -1.96812872       0.90181003 
H      -2.25938406      -2.54973771       0.49876204 
H      -3.71007836      -2.50229768       1.09154656 
C      -3.29459107      -0.87487925      -0.09063605 
H      -3.58380202      -0.09308190       0.40357542 
H      -4.04582701      -1.18105660      -0.62295581 
C       2.46135201       0.96732594      -1.94635339 
C       2.40969131       2.27719938       0.25565470 
C       3.11648486       2.02230066      -1.06750501 
H       2.74986271       0.09190555      -1.64705388 
H       2.77542159       1.08390131      -2.85717335 
H       1.62078363       2.81741559       0.08412173 
H       2.99939453       2.79746856       0.82307315 
H       4.02767736       1.74873191      -0.88257652 
H       3.15648375       2.85470898      -1.56158450 
