24
Properties=species:S:1:pos:R:3 2c24 h20 p=T pbc="F F F" h12=T v,=T c6=T o=T s4=T
V      -0.09808582      -0.17520828       0.36153129 
S       0.27632808       2.14498568       0.76710908 
S      -0.09880665      -1.78048472      -1.42979569 
S       2.33933428      -0.18657431       0.26644745 
S      -2.22469299       0.23526815      -0.64270934 
O      -0.39853535      -0.90605275       1.77453050 
C      -1.20622185       3.01682148       1.39857899 
H      -1.06704879       3.20963738       2.33880281 
H      -1.27763433       3.86752701       0.93592000 
C      -2.53828775       2.28297593       1.25512374 
H      -2.52220073       1.48802595       1.81080771 
H      -3.25132573       2.85626241       1.57743307 
C      -2.83951994       1.87937398      -0.18176594 
H      -2.44616211       2.53536621      -0.77677759 
H      -3.80038530       1.89985727      -0.31511715 
C       1.21377866      -2.92222012      -0.87728880 
C       2.90292339      -1.03170671      -1.25148933 
C       2.61744696      -2.52517440      -1.30927861 
H       1.19080951      -2.97604448       0.09005542 
H       1.02122852      -3.80766198      -1.22476496 
H       2.47827491      -0.60739776      -2.01520919 
H       3.85933171      -0.89864063      -1.34076512 
H       3.25677384      -2.98337157      -0.74303955 
H       2.75971184      -2.83183102      -2.21721059 
