24
Properties=species:S:1:pos:R:3 2c24 h20 p=T pbc="F F F" h12=T v,=T c6=T o=T s4=T
V      -0.31338584      -0.11043998      -0.24620310 
S       1.12584066      -1.99939490      -0.02607688 
S      -0.52818700       2.16851814       0.49269855 
S       1.46850586       0.62423505      -1.74129555 
S      -1.20994926      -0.40504627       1.94670122 
O      -1.50506627      -0.48457023      -1.27620050 
C       0.31177491      -3.44072961       0.75919851 
H       0.15173550      -4.10874421       0.07457320 
H       0.93050102      -3.82597180       1.40077425 
C      -1.00927922      -3.16752945       1.47591736 
H      -1.67244753      -2.89501817       0.82251523 
H      -1.31986912      -3.98796539       1.88990122 
C      -0.89075309      -2.08880191       2.54389945 
H       0.00238076      -2.12060921       2.91859302 
H      -1.51669842      -2.28859232       3.25786064 
C      -0.45755955       3.06052325      -1.09822647 
C       1.98710474       2.32180793      -1.31081319 
C       0.94864060       3.40423415      -1.56621060 
H      -0.88615553       2.51781642      -1.77716260 
H      -0.96653584       3.88269316      -1.01575042 
H       2.22629089       2.34071423      -0.36950295 
H       2.78561365       2.53735955      -1.81708843 
H       0.92207175       3.58763457      -2.51750896 
H       1.23286407       4.21613628      -1.12050890 
