24
Properties=species:S:1:pos:R:3 2c24 h20 p=T pbc="F F F" h12=T v,=T c6=T o=T s4=T
V       0.01202781      -0.28828667      -0.29625964 
S      -0.63026840      -1.36896713       1.73045308 
S       0.58738980       1.88507286      -1.15138085 
S       2.20094708      -0.35918131       0.77788805 
S      -2.14423371       0.69683780      -0.57824233 
O       0.15351142      -1.40737039      -1.45755389 
C      -2.29824167      -2.12280478       1.65045185 
H      -2.19380826      -3.08590390       1.60460780 
H      -2.76222054      -1.92088938       2.47918990 
C      -3.18673529      -1.68434658       0.48776455 
H      -2.79041730      -1.98743127      -0.34413730 
H      -4.05446287      -2.10900044       0.57541028 
C      -3.37867444      -0.17514659       0.42642891 
H      -3.34943817       0.17779078       1.32846854 
H      -4.25995519       0.01138878       0.06585555 
C       2.29892651       1.59708487      -1.71654348 
C       2.97216728       1.29599809       0.73771211 
C       3.35924925       1.80044066      -0.64467255 
H       2.36639956       0.69005267      -2.05108714 
H       2.48650745       2.19694030      -2.45600908 
H       2.35546034       1.93216511       1.13595390 
H       3.76796324       1.27823368       1.29159550 
H       4.17034225       1.34814515      -0.92192171 
H       3.55924475       2.74641104      -0.58335449 
