24
Properties=species:S:1:pos:R:3 2c24 h20 p=T pbc="F F F" h12=T v,=T c6=T o=T s4=T
V      -0.29863007      -0.04525336      -0.28248160 
S       1.56269013       0.98071608      -1.36454119 
S      -0.97615864      -0.88916053       1.86566668 
S      -0.57079941       2.21057305       0.60485030 
S       0.76020962      -2.18480710      -0.25765207 
O      -1.51737445      -0.15589524      -1.34238294 
C       2.25980439      -0.03448240      -2.72108458 
H       2.01565299       0.37755429      -3.56440171 
H       3.22809023      -0.00586185      -2.65432854 
C       1.82812139      -1.49916696      -2.76417981 
H       0.87713670      -1.54263769      -2.95053257 
H       2.29354035      -1.94467932      -3.48934722 
C       2.11456356      -2.23873643      -1.46445861 
H       2.90688509      -1.85606915      -1.05839532 
H       2.30883816      -3.16656641      -1.67146893 
C      -2.39756351       0.19470740       2.23518298 
C      -0.75305735       2.15130089       2.42124299 
C      -2.03206495       1.49984621       2.92624644 
H      -2.85425905       0.40060455       1.40559571 
H      -3.01979645      -0.29128566       2.79950508 
H       0.00476269       1.66867345       2.79058289 
H      -0.71445656       3.05757206       2.76413680 
H      -2.76293946       2.12595505       2.81170236 
H      -1.93862664       1.33118723       3.87568916 
