24
Properties=species:S:1:pos:R:3 2c24 h20 p=T pbc="F F F" h12=T v,=T c6=T o=T s4=T
V      -0.16688586      -0.37835299      -0.00466557 
S       2.04053427      -0.55714141      -0.88971371 
S      -1.69156539       1.25121556       0.89290004 
S      -0.59445973       0.55500933      -2.21740194 
S       0.63438994      -0.16102016       2.23367572 
O      -0.87875722      -1.82979447      -0.09142462 
C       3.13435268      -1.63592464       0.10858195 
H       3.27099425      -2.46323818      -0.37870575 
H       3.99863981      -1.20061065       0.18834701 
C       2.64544767      -1.98567664       1.51291585 
H       1.84268066      -2.52565208       1.44234249 
H       3.32254706      -2.51720149       1.96010885 
C       2.34460458      -0.75538844       2.35800266 
H       2.94133575      -0.04096411       2.08854980 
H       2.53423293      -0.96267406       3.28673196 
C      -3.05873158       1.15273695      -0.31244736 
C      -1.47629717       2.14729531      -2.06573910 
C      -2.89584917       2.05639088      -1.52547007 
H      -3.13787995       0.23619030      -0.61717224 
H      -3.88659477       1.38442004       0.13787253 
H      -0.96169788       2.72928843      -1.48255472 
H      -1.50704599       2.56650484      -2.93964498 
H      -3.47460292       1.73288266      -2.23236236 
H      -3.19400255       2.94742903      -1.28930564 
