24
Properties=species:S:1:pos:R:3 2c24 h20 p=T pbc="F F F" h12=T v,=T c6=T o=T s4=T
V      -0.36481370       0.01065196       0.19447659 
S       1.23210082       1.08050518       1.60630423 
S      -0.53357787      -1.07319110      -1.94621680 
S       0.76537050      -1.98388737       1.02795330 
S      -0.47516363       1.88552677      -1.27933328 
O      -1.78644907      -0.04161375       0.96725825 
C       0.84818859       2.84327701       1.92576170 
H       0.53646158       2.92473845       2.84050660 
H       1.67288656       3.35086828       1.85450619 
C      -0.18968800       3.48921849       1.00974859 
H      -1.04994048       3.06695449       1.16024025 
H      -0.27491597       4.42747140       1.24079299 
C       0.16974876       3.37381655      -0.46530223 
H       1.13505924       3.37993021      -0.55035135 
H      -0.17157022       4.15418537      -0.93004970 
C      -1.06080057      -2.74867629      -1.44973981 
C       1.24031705      -3.06345842      -0.36666695 
C       0.08212520      -3.69797614      -1.12248506 
H      -1.63498740      -2.67535947      -0.67249235 
H      -1.58764883      -3.13369458      -2.16808119 
H       1.76783772      -2.54155065      -0.99353749 
H       1.80984836      -3.77138259      -0.02774062 
H      -0.26648498      -4.43127418      -0.59328274 
H       0.42079253      -4.07079704      -1.95008827 
