24
Properties=species:S:1:pos:R:3 2c24 h20 p=T pbc="F F F" h12=T v,=T c6=T o=T s4=T
V       0.02086463       0.40704428       0.07002334 
S       1.79460450      -0.15597893      -1.42156336 
S      -1.80953216      -0.60358092       1.25916153 
S       1.53397882      -0.61560325       1.68707756 
S      -1.62401597       0.23128645      -1.65129162 
O       0.12941388       1.98102323       0.43303527 
C       1.66082735       0.67378351      -3.04956956 
H       2.33942039       1.36522686      -3.09412857 
H       1.86556123       0.02211184      -3.73968625 
C       0.31132975       1.30912641      -3.37927230 
H       0.15025214       2.04386135      -2.76673045 
H       0.34448033       1.67331488      -4.27773300 
C      -0.84495581       0.32275444      -3.28783183 
H      -0.51993791      -0.55856442      -3.52602392 
H      -1.51930195       0.57359440      -3.93883180 
C      -1.33640420      -0.25938444       2.98814461 
C       0.64037530      -1.86091787       2.68039413 
C      -0.42643602      -1.30634693       3.61294268 
H      -0.88929804       0.59976057       3.02198846 
H      -2.14339383      -0.19110147       3.52286669 
H       0.22079530      -2.49383150       2.07458443 
H       1.28624945      -2.35236933       3.21116306 
H       0.01130514      -0.91536922       4.38419444 
H      -0.97260544      -2.04143741       3.92910565 
