24
Properties=species:S:1:pos:R:3 2c24 h20 p=T pbc="F F F" h12=T v,=T c6=T o=T s4=T
V      -0.31171600       0.12356189      -0.24205214 
S      -0.48478187       1.31708966       1.81549952 
S       1.06352852      -1.51779122      -1.33769250 
S      -1.22206266      -1.67226735       1.13506557 
S       1.52148146       1.46016362      -0.98524195 
O      -1.57068905       0.52129474      -1.17894369 
C      -0.31919185       3.13072379       1.61520627 
H      -1.19426480       3.53045035       1.73781924 
H       0.25321576       3.46315026       2.32562528 
C       0.24430612       3.61817719       0.28165182 
H      -0.38103989       3.39534564      -0.42565109 
H       0.33008726       4.58402690       0.30885082 
C       1.60155018       3.01014975      -0.04465863 
H       2.07463266       2.84518763       0.78484454 
H       2.11669247       3.65575359      -0.55386238 
C      -0.13941156      -2.86598916      -1.59653852 
C      -0.21025853      -3.18104441       0.94570416 
C      -0.26383019      -3.83258275      -0.42830821 
H      -1.00944806      -2.47601195      -1.77012922 
H       0.12048060      -3.36618924      -2.38652489 
H       0.71404095      -2.95825357       1.14487029 
H      -0.50020242      -3.83072769       1.60467137 
H      -1.10284937      -4.31075028      -0.51023996 
H       0.45041653      -4.48433436      -0.48904962 
