24
Properties=species:S:1:pos:R:3 2c24 h20 p=T pbc="F F F" h12=T v,=T c6=T o=T s4=T
V      -0.30819367       0.15156609       0.23036499 
S       1.61058505       1.51548701       0.61244760 
S      -1.01191917      -1.76639580      -1.03926405 
S       0.92033743      -1.36511020       1.69344095 
S      -0.70089448       1.12105879      -1.91563552 
O      -1.50875248       0.66717981       1.18627888 
C       1.37084819       3.25917754       0.10364924 
H       1.28618716       3.79976089       0.90438021 
H       2.17178337       3.55239353      -0.36044148 
C       0.16822489       3.54571253      -0.79362616 
H      -0.64577893       3.36894691      -0.29649374 
H       0.17068808       4.48521581      -1.03506220 
C       0.16614492       2.70832639      -2.06526583 
H       1.08393246       2.53684647      -2.32479563 
H      -0.24920138       3.22295840      -2.77526984 
C      -1.46213670      -2.92506657       0.29733237 
C       1.01771641      -3.02422667       0.93590324 
C      -0.30611374      -3.76524932       0.81910729 
H      -1.83438008      -2.41815958       1.03466517 
H      -2.15571023      -3.52041657      -0.02876064 
H       1.39960799      -2.93440156       0.04723980 
H       1.62747434      -3.56646769       1.45989135 
H      -0.54417668      -4.11065791       1.69279438 
H      -0.18433457      -4.52381820       0.22888603 
