24
Properties=species:S:1:pos:R:3 2c24 h20 p=T pbc="F F F" h12=T v,=T c6=T o=T s4=T
V      -0.16266722      -0.38016863      -0.00590177 
S       0.82110890       0.01227805      -2.14275677 
S      -0.49524696       0.69261549       2.12113614 
S      -1.88302548       1.08427321      -0.92566503 
S       1.96294318      -0.71024638       1.02960645 
O      -0.88555912      -1.82860373      -0.02671976 
C       2.18517746      -1.14652045      -2.53430395 
H       1.86951115      -1.77037865      -3.20640785 
H       2.91125693      -0.63743797      -2.92990048 
C       2.74929012      -1.95151227      -1.36499931 
H       2.06356205      -2.55386222      -1.03645632 
H       3.49137400      -2.49039638      -1.68103614 
C       3.22966045      -1.07213063      -0.21860513 
H       3.55222412      -0.23481055      -0.58458710 
H       3.97777183      -1.51064685       0.21670767 
C      -2.31769971       0.75824368       2.19899961 
C      -2.25945594       2.42645446       0.25453120 
C      -2.93256638       1.98741517       1.54660278 
H      -2.67504160      -0.03281984       1.76806486 
H      -2.58951851       0.73278160       3.13028299 
H      -1.43034515       2.88048834       0.47827429 
H      -2.83345305       3.07188545      -0.18630864 
H      -3.86622943       1.80509051       1.36128900 
H      -2.89848655       2.72183634       2.17754031 
