24
Properties=species:S:1:pos:R:3 2c24 h20 p=T pbc="F F F" h12=T v,=T c6=T o=T s4=T
V       0.09287153       0.16555272       0.36741097 
S       0.87901187      -2.08608876       0.37596403 
S      -1.02828774       1.74562837      -1.05811635 
S      -2.05011843      -0.95794583       0.67649337 
S       1.88401337       0.89713932      -1.03117408 
O       0.36370234       0.81418929       1.82579762 
C       2.69540362      -2.21674537       0.57710091 
H       2.87876320      -2.54051180       1.47271383 
H       3.02193984      -2.88649757      -0.04552182 
C       3.49671052      -0.93426663       0.36108286 
H       3.26436074      -0.29637260       1.05397083 
H       4.44210688      -1.13409556       0.44627659 
C       3.24563259      -0.30230256      -1.00121982 
H       3.05250427      -1.00634933      -1.63849107 
H       4.05752026       0.14274865      -1.29144765 
C      -2.53871165       2.08066914      -0.08957565 
C      -3.26425479      -0.33589835      -0.53797909 
C      -3.68417549       1.11500562      -0.35405959 
H      -2.31631035       2.04693852       0.85306924 
H      -2.84063849       2.98150959      -0.28743719 
H      -2.88822886      -0.43704215      -1.42792677 
H      -4.05703186      -0.89259264      -0.49337427 
H      -4.30754280       1.16401818       0.38642751 
H      -4.15415914       1.40376770      -1.15052045 
