24
Properties=species:S:1:pos:R:3 2c24 h20 p=T pbc="F F F" h12=T v,=T c6=T o=T s4=T
V       0.34739596       0.11713389       0.19136181 
S      -0.08139127       1.69421189      -1.54557390 
S      -0.57295444      -1.87836342       1.16947783 
S       1.06739122      -1.23798402      -1.70480515 
S      -1.37294776       1.01889745       1.57941374 
O       1.75015799       0.49955985       0.90338668 
C      -0.36088536       3.39513952      -0.92465971 
H       0.41983456       3.92865137      -1.14008821 
H      -1.11309624       3.77435419      -1.40759656 
C      -0.63543388       3.53551364       0.57147748 
H       0.15717473       3.27074467       1.06408068 
H      -0.81360520       4.46726460       0.77410762 
C      -1.81524492       2.69362255       1.03790284 
H      -2.45382507       2.62611782       0.31212495 
H      -2.25246954       3.15196675       1.77289916 
C       0.77574301      -3.07057188       0.86722305 
C       0.27212111      -2.88088892      -1.63830329 
C       0.70870042      -3.76916250      -0.48259976 
H       1.62252376      -2.60385382       0.93292013 
H       0.75711264      -3.74374283       1.56601937 
H      -0.68951043      -2.75485986      -1.58340430 
H       0.45647775      -3.34588192      -2.46907868 
H       1.58359164      -4.13277939      -0.68670341 
H       0.09207848      -4.51336833      -0.41512292 
