24
Properties=species:S:1:pos:R:3 2c24 h20 p=T pbc="F F F" h12=T v,=T c6=T o=T s4=T
V      -0.00462777      -0.31557182       0.26723895 
S       2.27523318       0.14251482      -0.26226065 
S      -2.22788922       0.45465384      -0.23238720 
S       0.05690256      -1.33297522      -1.94890437 
S      -0.17165781       1.60118090       1.68060663 
O      -0.06027862      -1.60479062       1.24488316 
C       3.26517968       0.65817723       1.19063454 
H       3.85442804      -0.07358957       1.43119980 
H       3.82517340       1.40597032       0.92593564 
C       2.48113947       1.06733117       2.43617950 
H       2.00921186       0.29298075       2.78064242 
H       3.10378123       1.36345388       3.11852282 
C       1.47858417       2.18067304       2.16481243 
H       1.82747030       2.74670443       1.45984293 
H       1.39431999       2.72426998       2.96410352 
C      -2.95277236      -1.03783661      -0.99312399 
C      -1.33773509      -0.72173797      -2.95756110 
C      -2.71878469      -1.15854493      -2.49153130 
H      -2.58097115      -1.81957207      -0.55742569 
H      -3.90904324      -1.03708948      -0.82769134 
H      -1.30857647       0.24919477      -2.96603713 
H      -1.21258544      -1.02338925      -3.87065347 
H      -2.85444089      -2.08199859      -2.75256945 
H      -3.38324826      -0.62467965      -2.95206805 
