24
Properties=species:S:1:pos:R:3 2c24 h20 p=T pbc="F F F" h12=T v,=T c6=T o=T s4=T
V      -0.23921457      -0.31236027      -0.12740133 
S       1.41845923       0.05118775      -1.80308911 
S      -0.94256712       0.52515809       2.01493933 
S      -1.18840183       1.69527026      -1.13668329 
S       1.31978057      -1.37741221       1.33364169 
O      -1.24608143      -1.47269236      -0.63810563 
C       2.51662653      -1.39292404      -2.05877627 
H       2.28310623      -1.80535429      -2.90490716 
H       3.42908553      -1.06996299      -2.13602728 
C       2.48280962      -2.47178270      -0.97783747 
H       1.60574865      -2.88618254      -0.97276097 
H       3.13392281      -3.15726890      -1.19491840 
C       2.78332399      -1.92655207       0.41165955 
H       3.39396740      -1.17900391       0.32574433 
H       3.23281482      -2.61617958       0.92530948 
C      -2.62864322       1.10687911       1.62705813 
C      -1.57600968       2.92383550       0.15807582 
C      -2.69882398       2.53550425       1.10874349 
H      -3.01490726       0.51674214       0.96243950 
H      -3.17166138       1.04083652       2.42867660 
H      -0.77254393       3.08426840       0.67993452 
H      -1.81382336       3.75973641      -0.27216590 
H      -3.54514492       2.65804521       0.65263521 
H      -2.68533535       3.13992227       1.86578707 
