24
Properties=species:S:1:pos:R:3 2c24 h20 p=T pbc="F F F" h12=T v,=T c6=T o=T s4=T
V      -0.28972360      -0.22465226      -0.19135110 
S       1.73599467      -1.48276486      -0.23131801 
S      -1.16937765       1.87219130       0.59300925 
S       0.85851002       1.00646223      -1.95659996 
S      -0.66402951      -0.70106871       2.11784154 
O      -1.42245578      -1.04073449      -1.01104490 
C       1.61551112      -3.07545968       0.66624155 
H       1.59292910      -3.79114670       0.01213906 
H       2.42390166      -3.18901298       1.19203938 
C       0.41492466      -3.24207183       1.59594086 
H      -0.39682639      -3.25011065       1.06491869 
H       0.48207561      -4.09728596       2.04878011 
C       0.31629036      -2.13683188       2.63853535 
H       1.21138663      -1.83762309       2.85847129 
H      -0.07740155      -2.50518548       3.44524884 
C      -1.67076339       2.65168741      -0.97947347 
C       0.81035544       2.79791882      -1.60392733 
C      -0.56829871       3.43811992      -1.67275604 
H      -1.98421036       1.96039449      -1.58200528 
H      -2.41564502       3.24906028      -0.80592371 
H       1.17456443       2.94619409      -0.71567134 
H       1.39088293       3.25142874      -2.23457002 
H      -0.80884979       3.55260393      -2.60460301 
H      -0.51968662       4.31959830      -1.27369365 
