24
Properties=species:S:1:pos:R:3 2c24 h20 p=T pbc="F F F" h12=T v,=T c6=T o=T s4=T
V       0.07414557      -0.29297909      -0.28229299 
S      -0.54823940      -1.38895016       1.74242020 
S       0.39098657       1.91193401      -1.18989165 
S       2.16914963      -0.00849905       0.93434828 
S      -2.17568565       0.35716453      -0.74599650 
O       0.45633787      -1.41681249      -1.38315532 
C      -2.08104046      -2.38034496       1.58601219 
H      -1.83663845      -3.31887094       1.58814944 
H      -2.62658631      -2.22130575       2.37337439 
C      -2.93877417      -2.11451128       0.35023972 
H      -2.44529191      -2.38355964      -0.44037850 
H      -3.74066220      -2.65815583       0.39912775 
C      -3.34026936      -0.65230234       0.21227610 
H      -3.42577412      -0.26956386       1.09844496 
H      -4.21147087      -0.60826994      -0.21261615 
C       2.16175625       1.85847602      -1.62946050 
C       2.69600639       1.73930004       0.87406717 
C       3.10351899       2.24934365      -0.50036767 
H       2.38204435       0.96054970      -1.91994453 
H       2.31320466       2.45477343      -2.38000383 
H       1.96787461       2.29133753       1.20378092 
H       3.44496149       1.85598785       1.47891742 
H       3.98862425       1.91143521      -0.70461443 
H       3.16099335       3.21586707      -0.46649673 
