24
Properties=species:S:1:pos:R:3 2c24 h20 p=T pbc="F F F" h12=T v,=T c6=T o=T s4=T
V      -0.05493665       0.28589652      -0.29371549 
S      -1.79626997       0.56354140       1.31210229 
S       1.87437637      -1.08037059      -0.73737164 
S      -1.44847020      -1.60556185      -0.94994436 
S       1.57199042       1.28158621       1.14195806 
O      -0.29369339       1.33523616      -1.50319963 
C      -1.76019588       2.19635863       2.14241112 
H      -2.49671854       2.72667609       1.80055487 
H      -1.91845504       2.05794359       3.09038174 
C      -0.47607189       3.00904713       1.98726203 
H      -0.36969909       3.25642751       1.05534105 
H      -0.55461172       3.82602439       2.50431473 
C       0.76255671       2.25114525       2.44516078 
H       0.51139793       1.65343362       3.16540735 
H       1.40243665       2.88795587       2.80081545 
C       1.40019467      -1.85168852      -2.32227673 
C      -0.43504675      -3.12095456      -1.06206661 
C       0.59412855      -3.13439307      -2.18273592 
H       0.88096183      -1.21353766      -2.83446832 
H       2.20646703      -2.04544506      -2.82646500 
H       0.02827576      -3.24405216      -0.21719285 
H      -1.02760387      -3.87935698      -1.18079084 
H       0.13623798      -3.30479635      -3.01975989 
H       1.20674785      -3.86934884      -2.03056602 
