24
Properties=species:S:1:pos:R:3 2c24 h20 p=T pbc="F F F" h12=T v,=T c6=T o=T s4=T
V       0.27668758       0.29322559      -0.09212155 
S       0.36051001      -1.34215902      -1.82603911 
S      -0.87732565       0.77825512       1.96184173 
S       1.52058665      -1.43028790       1.10470894 
S      -1.77578974       1.20270516      -0.90429884 
O       1.41191381       1.41114918      -0.37931241 
C      -0.09481062      -0.67570436      -3.47082710 
H       0.71223974      -0.60734824      -4.00427352 
H      -0.67718496      -1.31826750      -3.90764024 
C      -0.79073329       0.68408649      -3.48381773 
H      -0.17303813       1.35794771      -3.15923695 
H      -1.02441059       0.91087243      -4.39756107 
C      -2.05087520       0.71181613      -2.62967443 
H      -2.45210372      -0.17022059      -2.64071706 
H      -2.68409913       1.32820070      -3.03037615 
C       0.50697444       0.77014202       3.15152707 
C       0.74806500      -1.74599457       2.72937910 
C       0.83632558      -0.59956308       3.72596678 
H       1.29634159       1.11941634       2.71097465 
H       0.29046145       1.36945965       3.88348542 
H      -0.18899791      -1.95935052       2.58787016 
H       1.16692973      -2.52716960       3.12271294 
H       1.73463342      -0.57510446       4.08894745 
H       0.23015713      -0.78086685       4.45966073 
