24
Properties=species:S:1:pos:R:3 2c24 h20 p=T pbc="F F F" h12=T v,=T c6=T o=T s4=T
V      -0.29291369       0.28362600       0.06914843 
S       0.75107513      -0.19365837       2.15966658 
S      -0.18570147      -0.33073638      -2.25395934 
S      -1.34835316      -1.87091660       0.50980770 
S       1.56290798       1.58482127      -0.68069485 
O      -1.50456535       1.32722368       0.32168454 
C       1.58086692       1.26136162       2.90207388 
H       1.05029814       1.56067748       3.65670937 
H       2.44171111       0.97537377       3.24850023 
C       1.81180052       2.45612569       1.97864724 
H       0.95307988       2.82608722       1.72035229 
H       2.29667809       3.14180045       2.46414462 
C       2.59394150       2.09164922       0.72417536 
H       3.20327151       1.36908758       0.93798993 
H       3.12721880       2.85709339       0.45738913 
C      -1.85118016      -1.03329390      -2.50752875 
C      -1.18791817      -2.95707381      -0.94982810 
C      -1.96711547      -2.51434408      -2.17951265 
H      -2.48114374      -0.54377777      -1.95734757 
H      -2.10623332      -0.90008877      -3.43436574 
H      -0.24766958      -3.01711675      -1.18638650 
H      -1.48244813      -3.84782351      -0.70444947 
H      -2.90260302      -2.72938775      -2.04561182 
H      -1.65675202      -3.02497990      -2.94210274 
