24
Properties=species:S:1:pos:R:3 2c24 h20 p=T pbc="F F F" h12=T v,=T c6=T o=T s4=T
V       0.18667532      -0.00888765      -0.36891324 
S      -1.12325695       1.98193332      -0.27570143 
S       0.76447069      -1.92698162       0.96256465 
S      -2.00915905      -1.01148717      -0.72004354 
S       1.86109038       0.89932439       1.07016053 
O       0.86144719      -0.11658327      -1.83658313 
C      -0.12347344       3.51175846      -0.40560204 
H      -0.27207903       3.89749181      -1.28292416 
H      -0.45466711       4.14691026       0.24994806 
C       1.38265983       3.35823065      -0.20188644 
H       1.74557936       2.82055600      -0.92312449 
H       1.79842399       4.23354718      -0.24576095 
C       1.73637156       2.70889227       1.12910379 
H       1.06208891       2.95197190       1.78129261 
H       2.58426769       3.06849588       1.43442615 
C       0.10904975      -3.28105271      -0.07117548 
C      -2.24926716      -2.41143902       0.42821447 
C      -1.35313793      -3.61629511       0.18213246 
H       0.21430894      -3.03812314      -1.00342288 
H       0.64143674      -4.07705468       0.08620142 
H      -2.09800465      -2.09527144       1.33418916 
H      -3.17336755      -2.70011168       0.37253538 
H      -1.69565270      -4.10429861      -0.58196596 
H      -1.40689903      -4.20327234       0.95101836 
