24
Properties=species:S:1:pos:R:3 2c24 h20 p=T pbc="F F F" h12=T v,=T c6=T o=T s4=T
V      -0.23179581       0.08999672      -0.33044657 
S       0.82498941       2.10811921       0.37550370 
S      -0.37114265      -2.24245392       0.24053660 
S      -1.63590508       0.56786029       1.60612526 
S       1.78453717      -0.75471849      -1.28977223 
O      -1.21620250       0.42730313      -1.57066357 
C       1.94737806       2.81640263      -0.88758163 
H       1.52425650       3.60508189      -1.26110684 
H       2.75988469       3.10699746      -0.44233945 
C       2.33948568       1.89494424      -2.04113020 
H       1.54941554       1.69318001      -2.56655318 
H       2.96824996       2.35845905      -2.61625919 
C       2.96914737       0.59146138      -1.56917056 
H       3.44753316       0.75966625      -0.74336841 
H       3.61709066       0.30213921      -2.23093073 
C      -2.14858059      -2.40363837       0.62320840 
C      -1.75990136      -0.91152405       2.67010855 
C      -2.51401245      -2.08677443       2.06563760 
H      -2.64620143      -1.81079912       0.04003209 
H      -2.42745225      -3.31180924       0.42501964 
H      -0.86144999      -1.20492327       2.89446203 
H      -2.19759563      -0.65941648       3.49791233 
H      -3.46385476      -1.89937847       2.11027513 
H      -2.34605831      -2.87264175       2.60676792 
