24
Properties=species:S:1:pos:R:3 2c24 h20 p=T pbc="F F F" h12=T v,=T c6=T o=T s4=T
V       0.16209800      -0.27150890      -0.26651603 
S       1.96789724       0.71740909       0.93727361 
S      -2.23763309      -0.20670834      -0.41770102 
S       0.21447208       1.88235814      -1.41032572 
S      -0.46732847      -1.63510299       1.58925380 
O       0.77091671      -1.27633853      -1.38035064 
C       2.92720989      -0.49216945       1.92390688 
H       3.78189564      -0.63010221       1.48680879 
H       3.10670592      -0.09953126       2.79365939 
C       2.27819995      -1.85768871       2.14219913 
H       2.20278127      -2.31151143       1.28818162 
H       2.85165971      -2.39259098       2.71315210 
C       0.89805970      -1.76178851       2.77804768 
H       0.87728110      -0.98549505       3.35773014 
H       0.75589506      -2.54610078       3.33131781 
C      -2.46494815       0.35075804      -2.14085593 
C      -1.46125915       2.60743413      -1.45726369 
C      -2.46936499       1.86163502      -2.31911543 
H      -1.75475626      -0.02330207      -2.68389000 
H      -3.30531986      -0.00311867      -2.47307451 
H      -1.80373315       2.64892406      -0.54917637 
H      -1.39346633       3.51820372      -1.78329511 
H      -2.28891299       2.06403357      -3.24958955 
H      -3.35608009       2.19430976      -2.11495397 
