24
Properties=species:S:1:pos:R:3 2c24 h20 p=T pbc="F F F" h12=T v,=T c6=T o=T s4=T
V      -0.09975193      -0.08453220      -0.39233596 
S       1.58590156       1.60225641      -0.42833140 
S      -1.36608332      -1.42504243       1.15207411 
S      -1.48756483       1.81842621       0.24241715 
S       1.47422285      -1.79469963       0.15298868 
O      -0.57453244      -0.37474106      -1.91264271 
C       3.12455804       1.06869426      -1.26776805 
H       3.17560267       1.52159908      -2.12382856 
H       3.87962842       1.36853935      -0.73596486 
C       3.27968853      -0.43113781      -1.51260794 
H       2.59902556      -0.72060567      -2.14021866 
H       4.14591187      -0.59760497      -1.91622860 
C       3.16217245      -1.25399160      -0.23691639 
H       3.49758677      -0.72680370       0.50380299 
H       3.72768198      -2.03806293      -0.31995538 
C      -3.06693815      -0.87962276       0.77615650 
C      -2.45624489       1.41599496       1.73765010 
C      -3.52229926       0.34587605       1.55419513 
H      -3.12789974      -0.68546407      -0.17134842 
H      -3.67616820      -1.61098940       0.96527051 
H      -1.84281614       1.12354218       2.43177472 
H      -2.88597983       2.22603433       2.05317775 
H      -4.27923908       0.74031396       1.09509708 
H      -3.82756320       0.06105329       2.42844222 
