24
Properties=species:S:1:pos:R:3 2c24 h20 p=T pbc="F F F" h12=T v,=T c6=T o=T s4=T
V       0.08359009      -0.19245841      -0.35636513 
S      -2.10331731       0.74096779      -0.54111011 
S       1.91620117      -0.36114598       1.19245586 
S      -1.11514374      -1.82338085       1.00500039 
S       1.12984563       1.93648606      -0.62542459 
O       0.40548718      -1.02839904      -1.70490354 
C      -2.24463071       1.99352241      -1.87075054 
H      -2.75155043       1.60504918      -2.60060592 
H      -2.75827384       2.74286781      -1.52796024 
C      -0.93284346       2.53408523      -2.43689035 
H      -0.46396592       1.81508813      -2.88875977 
H      -1.13085498       3.21902432      -3.09462412 
C      -0.02515853       3.12418966      -1.36629606 
H      -0.57762396       3.49871356      -0.66372304 
H       0.48541201       3.85044795      -1.75787105 
C       2.00882959      -2.16858234       1.42972691 
C      -0.26492431      -2.04880814       2.60572617 
C       1.10467909      -2.70719998       2.52833882 
H       1.77548680      -2.60307735       0.59549390 
H       2.92606934      -2.40749422       1.63808925 
H      -0.16483940      -1.17866006       3.02579495 
H      -0.83099015      -2.58538298       3.18196441 
H       0.98200747      -3.65851891       2.38957951 
H       1.55126765      -2.59195190       3.38033330 
