24
Properties=species:S:1:pos:R:3 2c24 h20 p=T pbc="F F F" h12=T v,=T c6=T o=T s4=T
V       0.36927661       0.07323949       0.17115608 
S       0.35365155      -2.19802542      -0.55623014 
S      -1.03229189       2.02749282       0.21874789 
S      -1.00712107      -0.86174137       1.95483964 
S       0.62525628       0.89517767      -2.05557701 
O       1.77158395       0.36583930       0.92540393 
C       1.61578997      -2.55611578      -1.83512972 
H       2.32202408      -3.07985229      -1.42586039 
H       1.20516125      -3.10861576      -2.51995145 
C       2.25369444      -1.34722127      -2.51715626 
H       2.76845392      -0.85036404      -1.86206503 
H       2.86589261      -1.65755474      -3.20262718 
C       1.22896008      -0.41792194      -3.15324552 
H       0.47265212      -0.94672477      -3.44898340 
H       1.62629030      -0.00809072      -3.93786735 
C      -1.18635346       2.30414812       2.01636594 
C      -2.53022107       0.12645185       2.15397303 
C      -2.32495290       1.54080043       2.67624230 
H      -0.35408963       2.04820205       2.44181631 
H      -1.31658593       3.25280732       2.17418781 
H      -2.97780581       0.17807353       1.29337118 
H      -3.12356030      -0.34170509       2.76156766 
H      -2.15593719       1.49590967       3.62951492 
H      -3.14590064       2.03921142       2.54876935 
