24
Properties=species:S:1:pos:R:3 2c24 h20 p=T pbc="F F F" h12=T v,=T c6=T o=T s4=T
V      -0.17346129       0.10793042       0.35956341 
S      -1.43254365       1.14080445      -1.38280911 
S       1.72565729      -1.33103160       0.68896015 
S       1.38200182       1.90635486      -0.18485458 
S      -1.12146639      -2.03790603      -0.08329147 
O      -0.77565507       0.58306364       1.78524971 
C      -3.17675829       0.58315095      -1.44234112 
H      -3.73694009       1.30426085      -1.11559229 
H      -3.41445896       0.42984282      -2.37123724 
C      -3.51397664      -0.67835678      -0.64963041 
H      -3.39391061      -0.49849315       0.29600280 
H      -4.44686932      -0.90203781      -0.79330324 
C      -2.65324381      -1.87138657      -1.04219407 
H      -2.42443274      -1.79292216      -1.98058838 
H      -3.17675142      -2.68109064      -0.93364246 
C       2.83015017      -0.23907888       1.64783373 
C       3.05854457       1.22829409      -0.44068955 
C       3.72471579       0.65350709       0.80072816 
H       2.28836541       0.32176709       2.22324711 
H       3.39111280      -0.78864677       2.21802544 
H       3.00821908       0.53010088      -1.11420720 
H       3.62439777       1.93191223      -0.79442004 
H       4.03868468       1.38767994       1.35002220 
H       4.50046965       0.14219425       0.52616817 
