24
Properties=species:S:1:pos:R:3 2c24 h20 p=T pbc="F F F" h12=T v,=T c6=T o=T s4=T
V      -0.04567464       0.13536698       0.38808923 
S      -0.12747682      -2.24749098       0.44532134 
S       0.22063895       1.95711592      -1.15983621 
S      -2.30812362      -0.16339329      -0.47345228 
S       2.32132771       0.15204529       0.07749319 
O      -0.30981407       0.69866529       1.88271150 
C       1.22274794      -2.99354008       1.43381012 
H       0.84305805      -3.33030142       2.26024543 
H       1.57178366      -3.75565909       0.94370640 
C       2.39290743      -2.07697917       1.78616096 
H       2.07737820      -1.37502853       2.37666544 
H       3.06269768      -2.58949322       2.26540433 
C       3.03794727      -1.44366224       0.56095869 
H       2.95730654      -2.05806257      -0.18409456 
H       3.98368324      -1.31814841       0.73786006 
C      -1.36996780       2.82812779      -0.95244219 
C      -2.52543198       0.79987639      -2.00997503 
C      -2.49187322       2.31167325      -1.84078229 
H      -1.64709838       2.75123911      -0.02698757 
H      -1.23441536       3.77051230      -1.14048337 
H      -1.82643254       0.54444849      -2.63430572 
H      -3.37443497       0.55477943      -2.40936832 
H      -3.33906709       2.59902547      -1.46795335 
H      -2.40534864       2.71846080      -2.71579969 
