24
Properties=species:S:1:pos:R:3 2c24 h20 p=T pbc="F F F" h12=T v,=T c6=T o=T s4=T
V      -0.19591202      -0.26495701       0.24987978 
S      -0.73525114      -0.86365103      -1.99481573 
S       1.09615401       1.33668554       1.49530013 
S      -1.80342961       1.50988557      -0.21488669 
S       1.99796107      -1.19128578       0.08170106 
O      -1.01888281      -1.23065780       1.25542014 
C      -0.16918159      -2.54561646      -2.45018788 
H      -0.94634342      -3.12348407      -2.50172843 
H       0.22038199      -2.50417041      -3.33865590 
C       0.84717310      -3.19690136      -1.51404719 
H       0.42844080      -3.35329872      -0.65312207 
H       1.10675912      -4.05745932      -1.87876480 
C       2.09517364      -2.34810019      -1.31325239 
H       2.26008016      -1.84309379      -2.12372721 
H       2.85297079      -2.93804575      -1.17478921 
C      -0.21389360       2.17956902       2.44662893 
C      -1.09382397       3.13137066       0.23595639 
C      -0.86362334       3.35015692       1.72404992 
H      -0.90055650       1.53279817       2.66880232 
H       0.16596525       2.50159287       3.27959377 
H      -0.24508268       3.23435720      -0.22519915 
H      -1.68612378       3.82737979      -0.08830562 
H      -1.71685971       3.53783816       2.14366121 
H      -0.30409371       4.13279614       1.83815730 
