24
Properties=species:S:1:pos:R:3 2c24 h20 p=T pbc="F F F" h12=T v,=T c6=T o=T s4=T
V       0.02143221      -0.06585864      -0.40770939 
S       0.42597575      -2.15055549       0.67781480 
S      -0.46881920       2.23511007       0.09325155 
S       2.31523515       0.34737598       0.31193780 
S      -2.32127171      -0.16651717       0.04068151 
O       0.18566690      -0.27319508      -2.00489720 
C      -0.82374500      -3.42886466       0.27665411 
H      -0.41326925      -4.07932864      -0.31408628 
H      -1.05896880      -3.89100568       1.09759773 
C      -2.11253910      -2.93659340      -0.37923233 
H      -1.90371222      -2.57911640      -1.25649539 
H      -2.71293464      -3.68881665      -0.50026631 
C      -2.82069302      -1.86525539       0.43871645 
H      -2.64684401      -2.02730960       1.37818971 
H      -3.77707613      -1.94851454       0.29777817 
C       0.98540812       3.06834148      -0.62969527 
C       2.42073867       1.95276985       1.17657244 
C       2.17939126       3.17771685       0.30678030 
H       1.25754520       2.58362605      -1.42352891 
H       0.72548373       3.96149716      -0.90634442 
H       1.77174536       1.95580490       1.89936627 
H       3.30066337       2.02946453       1.57687740 
H       2.97433355       3.34107626      -0.22302216 
H       2.05046861       3.94540750       0.88353681 
