24
Properties=species:S:1:pos:R:3 2c24 h20 p=T pbc="F F F" h12=T v,=T c6=T o=T s4=T
V      -0.22394808      -0.34591089       0.03487922 
S      -1.56290440       1.45895151       0.83340716 
S       1.95032698      -0.78829839      -0.89387619 
S       0.85068948      -0.03826049       2.20298720 
S      -0.54419297       0.28602463      -2.24493413 
O      -1.04177499      -1.72789365       0.24043484 
C      -3.09217536       1.71174844      -0.14343993 
H      -3.84465419       1.40684750       0.38701173 
H      -3.20622215       2.66533617      -0.28667663 
C      -3.15360447       1.01509165      -1.50152831 
H      -3.16100816       0.05491185      -1.36372812 
H      -3.98184650       1.25799569      -1.94422075 
C      -1.98419311       1.37869835      -2.40626837 
H      -1.70858865       2.28607437      -2.20675397 
H      -2.28684126       1.35898940      -3.32794076 
C       2.65279288      -1.89891694       0.37291973 
C       2.66069240       0.08693208       1.99267842 
C       3.35067266      -1.18439267       1.52051028 
H       1.93950509      -2.44531210       0.73603450 
H       3.28915301      -2.49393911      -0.05465120 
H       2.84765122       0.79415756       1.35352980 
H       3.05138995       0.35132415       2.83993627 
H       3.41814670      -1.79510487       2.27003549 
H       4.25201234      -0.96191433       1.24354778 
