24
Properties=species:S:1:pos:R:3 2c24 h20 p=T pbc="F F F" h12=T v,=T c6=T o=T s4=T
V      -0.32229281       0.07774343       0.24719819 
S       1.65773812       0.30692774       1.55675201 
S      -1.02871247      -0.43671732      -1.99379862 
S       0.18029147      -2.29006630       0.54898122 
S       0.03822927       2.16457142      -0.85490024 
O      -1.60694041       0.29019753       1.20923465 
C       1.89152357       1.99724679       2.22381430 
H       1.70910079       1.97531219       3.17607935 
H       2.82508773       2.24032850       2.11326013 
C       1.03534534       3.09798451       1.60024107 
H       0.10304418       2.92848756       1.80778450 
H       1.27772653       3.94961735       1.99639343 
C       1.19963572       3.19074344       0.08938311 
H       2.10346456       2.92759504      -0.14070689 
H       1.08514774       4.11607008      -0.17918246 
C      -2.01718959      -1.94504505      -1.71172737 
C       0.15144147      -3.14691052      -1.06378014 
C      -1.21423680      -3.23714619      -1.72865796 
H      -2.46240165      -1.86804251      -0.85438478 
H      -2.70425476      -1.99796673      -2.39507448 
H       0.75775013      -2.68662882      -1.66723933 
H       0.49254832      -4.04627726      -0.94057629 
H      -1.72888142      -3.92721750      -1.28340221 
H      -1.09183125      -3.51288334      -2.64931205 
