24
Properties=species:S:1:pos:R:3 2c24 h20 p=T pbc="F F F" h12=T v,=T c6=T o=T s4=T
V      -0.12598441      -0.12390821      -0.37389615 
S       2.25513697      -0.25454257      -0.33962104 
S      -1.98301771       0.47153141       1.03416788 
S       0.36378971       2.25487998      -0.60121744 
S      -0.35850220      -2.08928732       0.96126999 
O      -0.64506903      -0.51945729      -1.85547045 
C       2.88918794      -1.95657536      -0.58018282 
H       3.26867749      -2.01571089      -1.47072119 
H       3.61092558      -2.10345284       0.05256892 
C       1.87581831      -3.08812346      -0.41835223 
H       1.21222467      -3.02073206      -1.12268938 
H       2.33205557      -3.93805380      -0.52047879 
C       1.17234427      -3.06355800       0.93176189 
H       1.78236362      -2.70231954       1.59242686 
H       0.96475103      -3.97541924       1.19037061 
C      -2.70538779       1.85862791       0.09297260 
C      -0.59480374       3.21155226       0.62429888 
C      -2.10134813       3.21827347       0.41084877 
H      -2.59268868       1.68304126      -0.85341406 
H      -3.65835180       1.89288947       0.27327305 
H      -0.41068019       2.85142731       1.50749817 
H      -0.27950055       4.12853982       0.61374729 
H      -2.30705307       3.82583772      -0.31569189 
H      -2.52489765       3.56538128       1.21006090 
