24
Properties=species:S:1:pos:R:3 2c24 h20 p=T pbc="F F F" h12=T v,=T c6=T o=T s4=T
V       0.07400061      -0.40015337      -0.07365346 
S       2.10233957       0.56973845       0.72204125 
S      -2.20762845       0.18335297      -0.56299433 
S       0.72892064       0.77398643      -2.10900659 
S      -0.89788478      -0.41547109       2.10686307 
O       0.35484487      -1.94835324      -0.45467052 
C       2.68572762      -0.16429091       2.29610145 
H       3.45935727      -0.71690694       2.10457964 
H       2.98106446       0.55663192       2.87566975 
C       1.67452255      -1.01131962       3.06650066 
H       1.46148412      -1.80085871       2.54474249 
H       2.07708389      -1.30502648       3.89875332 
C       0.38798117      -0.25891542       3.37792722 
H       0.59816730       0.68017041       3.49209656 
H       0.03327371      -0.58556944       4.21991542 
C      -2.28625997      -0.17959640      -2.35011174 
C      -0.66833193       1.77024337      -2.73444315 
C      -1.85864348       0.97272065      -3.24669120 
H      -1.72014873      -0.94379161      -2.53639977 
H      -3.19686181      -0.42726283      -2.57658061 
H      -0.97332854       2.35413600      -2.02052515 
H      -0.34575186       2.33556940      -3.45329097 
H      -1.63903954       0.61891979      -4.12185361 
H      -2.60985352       1.57474876      -3.35561174 
