24
Properties=species:S:1:pos:R:3 2c24 h20 p=T pbc="F F F" h12=T v,=T c6=T o=T s4=T
V       0.21227556       0.21703211       0.28081986 
S      -0.98117324       1.77341966      -1.07613146 
S       0.56107062      -2.14863092       0.54110001 
S       1.63781668       0.13067119      -1.69669403 
S      -1.75982235      -0.42625842       1.46253696 
O       1.12300859       1.04126979       1.33541359 
C      -2.20005148       2.76652031      -0.13544388 
H      -1.85574524       3.66931610      -0.05189207 
H      -3.01793860       2.81551015      -0.65651358 
C      -2.55464692       2.26096363       1.26176147 
H      -1.76909674       2.32040816       1.82777049 
H      -3.23840360       2.83478475       1.64145868 
C      -3.05927385       0.82442695       1.26060407 
H      -3.52138738       0.65906237       0.42502003 
H      -3.70358546       0.72106615       1.97868724 
C       2.35773764      -2.27241805       0.24383218 
C       1.91842998      -1.60507731      -2.19110971 
C       2.74499457      -2.43347965      -1.21857557 
H       2.78510629      -1.47518117       0.59160924 
H       2.70295220      -3.03079315       0.74134261 
H       1.05511699      -2.03546217      -2.30552999 
H       2.36201509      -1.61156494      -3.05342274 
H       3.67732106      -2.18919725      -1.32057363 
H       2.66033495      -3.36802599      -1.45956094 
