24
Properties=species:S:1:pos:R:3 2c24 h20 p=T pbc="F F F" h12=T v,=T c6=T o=T s4=T
V       0.30315150       0.03993436      -0.27843861 
S       1.19951872       0.63955456       1.84875687 
S      -1.74161620      -0.71299819      -1.29715492 
S      -0.70202560       2.25366060      -0.08039309 
S       0.34255623      -2.28933624       0.24347512 
O       1.44322297       0.27059338      -1.40449535 
C       2.56879265      -0.45104671       2.38957472 
H       3.39901270       0.04454110       2.31410729 
H       2.43894654      -0.65721903       3.32951405 
C       2.72919305      -1.76706405       1.63070824 
H       2.97797927      -1.57408811       0.71318186 
H       3.44929269      -2.27791518       2.03251849 
C       1.46179667      -2.61084814       1.63541475 
H       0.98340772      -2.44672486       2.46203595 
H       1.71265918      -3.54804803       1.62167770 
C      -2.08587945       0.66102351      -2.44835037 
C      -2.49606324       2.15858131      -0.40963832 
C      -2.87769336       1.80913649      -1.84055722 
H      -1.24314686       1.00671711      -2.77922374 
H      -2.57854198       0.31279194      -3.20850885 
H      -2.88249995       1.49314065       0.18322577 
H      -2.89576498       3.01325716      -0.18567110 
H      -2.75558577       2.59597336      -2.39308564 
H      -3.81899337       1.58086512      -1.86211018 
