24
Properties=species:S:1:pos:R:3 2c24 h20 p=T pbc="F F F" h12=T v,=T c6=T o=T s4=T
V       0.14776897      -0.34943947      -0.16456012 
S      -2.21935172      -0.58324753       0.00879665 
S       1.90557200       1.22869129       0.28864745 
S       0.00623440      -0.76261230       2.23532384 
S      -0.02804972       1.10996342      -2.04569786 
O       0.76558651      -1.73707103      -0.72469446 
C      -3.04479140      -0.80121782      -1.61229696 
H      -3.33097605      -1.72500128      -1.68503201 
H      -3.84336707      -0.24892710      -1.62253683 
C      -2.21433012      -0.46129224      -2.84853841 
H      -1.47593835      -1.08691247      -2.91461311 
H      -2.76601556      -0.56841026      -3.63919176 
C      -1.66286305       0.95761193      -2.81883394 
H      -2.28672950       1.52247397      -2.33840020 
H      -1.60745777       1.28834546      -3.72933377 
C       2.90295633       0.30218664       1.50459047 
C       0.94650482       0.51079131       3.14655834 
C       2.45466738       0.47272184       2.94837022 
H       2.87012743      -0.63975276       1.27908678 
H       3.82709325       0.58917652       1.43090003 
H       0.62235934       1.38531846       2.87496230 
H       0.75903265       0.41335268       4.09300089 
H       2.81619643      -0.25758504       3.47302132 
H       2.83239605       1.29514125       3.29415254 
