24
Properties=species:S:1:pos:R:3 2c24 h20 p=T pbc="F F F" h12=T v,=T c6=T o=T s4=T
V      -0.28419767       0.21524066      -0.20958719 
S      -1.39207610      -0.84961268       1.61432945 
S       1.90021070       0.44237038      -1.19067714 
S      -0.37174679      -2.04667236      -1.11858198 
S       0.70657798       1.85671253       1.21286910 
O      -1.38733591       0.99572292      -1.10116096 
C      -2.14329705       0.33385803       2.79410500 
H      -3.10576521       0.30845988       2.67758076 
H      -1.95238967       0.02617720       3.69507107 
C      -1.68812930       1.78761706       2.68045969 
H      -1.98009425       2.14400663       1.82680175 
H      -2.11319553       2.30757598       3.38040630 
C      -0.17806303       1.94531514       2.79499579 
H       0.16241702       1.25156570       3.37970092 
H       0.01417450       2.80085143       3.21040733 
C       1.61853484      -0.27952245      -2.84332145 
C       1.28315945      -2.55063097      -1.70452105 
C       1.80621954      -1.78767124      -2.91265296 
H       0.71612848      -0.06624285      -3.12501999 
H       2.22833474       0.13806754      -3.47227710 
H       1.91432679      -2.44088730      -0.97430426 
H       1.25709392      -3.49446445      -1.92563766 
H       1.35707477      -2.11936416      -3.70483915 
H       2.75108406      -1.97725163      -3.01219383 
