24
Properties=species:S:1:pos:R:3 2c24 h20 p=T pbc="F F F" h12=T v,=T c6=T o=T s4=T
V       0.22413116      -0.06670671       0.34108515 
S      -1.91395492      -1.06730645       0.68074273 
S       1.46754446       1.16490761      -1.30901025 
S      -1.05288557       1.96439601       0.78158132 
S       0.92640792      -1.81432145      -1.12591801 
O       1.09564803      -0.23500161       1.69500742 
C      -1.83292325      -2.88191167       0.92042582 
H      -2.00725836      -3.07234376       1.85525779 
H      -2.54777228      -3.28813109       0.40387028 
C      -0.52016636      -3.56025992       0.53310006 
H       0.18261345      -3.24900422       1.12488496 
H      -0.61058186      -4.51803888       0.65739140 
C      -0.11481845      -3.28473649      -0.90845023 
H      -0.91740077      -3.17764057      -1.44088532 
H       0.36369635      -4.05688151      -1.24944876 
C       1.78326544       2.72555892      -0.41660252 
C      -0.73262837       3.20100015      -0.52389142 
C       0.68045944       3.76451066      -0.55423752 
H       1.90513409       2.52568107       0.52381034 
H       2.61252170       3.10826192      -0.74477168 
H      -0.92016103       2.79376624      -1.38564804 
H      -1.35382510       3.93686062      -0.40979672 
H       0.77087768       4.40885713       0.16406071 
H       0.80567410       4.23930892      -1.38940574 
