24
Properties=species:S:1:pos:R:3 2c24 h20 p=T pbc="F F F" h12=T v,=T c6=T o=T s4=T
V       0.33309681       0.10279988      -0.22249122 
S       0.90985481      -1.79961449       1.09513883 
S      -1.51852113       1.57158983      -0.66962923 
S       0.60553784       1.22719161       1.92499708 
S      -0.95722820      -1.20955861      -1.74309135 
O       1.64506095       0.58338430      -1.04026811 
C       1.35519684      -3.26608844       0.09118125 
H       2.31435588      -3.39570479       0.15267488 
H       0.93168107      -4.04478941       0.48755503 
C       0.97510542      -3.21776934      -1.38756959 
H       1.48501570      -2.51604519      -1.82180879 
H       1.21562159      -4.06047014      -1.80346762 
C      -0.50968348      -2.96318138      -1.60864470 
H      -1.00397339      -3.35357904      -0.87219226 
H      -0.78491281      -3.41674368      -2.42104510 
C      -0.83452210       3.17341013      -0.12371639 
C      -0.85191904       2.27098787       2.27474319 
C      -1.02917971       3.47057805       1.35558913 
H       0.11424945       3.18859071      -0.32064679 
H      -1.25234421       3.88118327      -0.63976327 
H      -1.64788121       1.71733565       2.21519580 
H      -0.78920868       2.59104028       3.18799423 
H      -0.39761827       4.15686063       1.61913524 
H      -1.91998157       3.82912857       1.48416453 
