24
Properties=species:S:1:pos:R:3 2c24 h20 p=T pbc="F F F" h12=T v,=T c6=T o=T s4=T
V      -0.34905971       0.06662629       0.21152282 
S      -0.94911093      -0.28778631      -2.06933435 
S       1.58288704       0.14870040       1.64212092 
S       0.30901464       2.24319947      -0.67145749 
S       0.07421179      -2.25523111       0.57106090 
O      -1.68822906       0.41762521       1.05080557 
C      -2.01281745      -1.75889039      -2.31669520 
H      -2.91187233      -1.45326991      -2.51383569 
H      -1.69160554      -2.23726671      -3.09825261 
C      -2.08968341      -2.74500005      -1.15256994 
H      -2.52053596      -2.31130234      -0.39940241 
H      -2.63883926      -3.50063443      -1.41411985 
C      -0.72234858      -3.25441161      -0.71761862 
H      -0.14096123      -3.28145065      -1.49244292 
H      -0.81905983      -4.16273848      -0.39042819 
C       1.49978784       1.86981256       2.24425982 
C       2.01122321       2.64418541      -0.14447572 
C       2.19112351       2.88550671       1.34706108 
H       0.56843130       2.12121620       2.33672970 
H       1.90310591       1.90977036       3.12605369 
H       2.59524530       1.91511591      -0.41094954 
H       2.30203055       3.43729940      -0.62070559 
H       1.85162455       3.76802074       1.55971014 
H       3.13877478       2.88126662       1.54844914 
