24
Properties=species:S:1:pos:R:3 2c24 h20 p=T pbc="F F F" h12=T v,=T c6=T o=T s4=T
V       0.04950672       0.15523894      -0.38009683 
S      -1.09022141       1.79637096       0.92208774 
S       0.98864771      -2.05149028      -0.19536546 
S      -2.16355522      -0.87067312      -0.37315706 
S       2.14030796       0.61616595       0.67609664 
O       0.18050165       0.69907239      -1.89932553 
C      -0.14920733       3.35817092       1.10119547 
H      -0.57614386       4.03405242       0.55212597 
H      -0.21817335       3.64940107       2.02492793 
C       1.33095152       3.30606498       0.72713262 
H       1.41027172       3.13299829      -0.22404831 
H       1.73287978       4.17055074       0.90624676 
C       2.09727338       2.23620104       1.49291934 
H       1.69303086       2.13169343       2.36742560 
H       3.00881141       2.54150005       1.62465882 
C      -0.01984205      -2.96420128      -1.41257983 
C      -2.03994133      -2.62300196       0.12691971 
C      -1.31765114      -3.53140898      -0.85714110 
H      -0.23118995      -2.36963365      -2.14810745 
H       0.51026801      -3.69469188      -1.76921595 
H      -1.57976769      -2.66707169       0.98127943 
H      -2.93594180      -2.96835472       0.26222768 
H      -1.91436394      -3.72075070      -1.59700171 
H      -1.12383427      -4.37206953      -0.41629767 
