24
Properties=species:S:1:pos:R:3 2c24 h20 p=T pbc="F F F" h12=T v,=T c6=T o=T s4=T
V       0.06545576       0.00788201       0.40826102 
S      -1.83799610      -1.37381327       0.01358606 
S       1.69124036       1.32783915      -0.77508293 
S      -1.56643481       1.76740789      -0.02899032 
S       1.57706547      -1.67442861      -0.35614416 
O       0.29459018       0.12966823       2.00627099 
C      -1.59520252      -3.10897317       0.54938231 
H      -2.11893804      -3.25438077       1.35257946 
H      -1.95352703      -3.69192632      -0.13954596 
C      -0.15680868      -3.53673231       0.83495812 
H       0.17306193      -3.04280800       1.60190864 
H      -0.14665751      -4.47971004       1.06223280 
C       0.77544674      -3.30257691      -0.34587142 
H       0.26853385      -3.40359768      -1.16558429 
H       1.46323892      -3.98694412      -0.33895912 
C       1.36055461       2.98714239      -0.09020085 
C      -0.91202192       2.93333823      -1.27332298 
C       0.27829559       3.76679691      -0.82191080 
H       1.10039012       2.89290878       0.83856928 
H       2.18295173       3.50187086      -0.11344099 
H      -0.65282679       2.42814164      -2.06150236 
H      -1.62552953       3.53503993      -1.53648746 
H      -0.04232127       4.47213173      -0.23965845 
H       0.67323900       4.18786600      -1.59994589 
