24
Properties=species:S:1:pos:R:3 2c24 h20 p=T pbc="F F F" h12=T v,=T c6=T o=T s4=T
V       0.00893199       0.41233476       0.03039590 
S       0.84664593      -0.16617364      -2.12634761 
S      -0.85858061      -0.60462478       2.03014101 
S       2.22866644      -0.34363134       0.70231934 
S      -2.24650309      -0.04082531      -0.60765327 
O       0.11358235       2.01751929       0.21315599 
C      -0.17299024       0.49293815      -3.49847003 
H       0.31273426       1.22238024      -3.91386607 
H      -0.27209768      -0.20590674      -4.16528824 
C      -1.56585931       0.99867454      -3.12745155 
H      -1.47707568       1.77561875      -2.55346192 
H      -2.02654731       1.27676512      -3.93454265 
C      -2.40649454      -0.05230504      -2.41536894 
H      -2.15121585      -0.92765978      -2.74351818 
H      -3.33871126       0.08777464      -2.64518196 
C       0.37605138      -0.06479296       3.26138804 
C       2.09313184      -1.54733473       2.06933875 
C       1.58366600      -0.98157526       3.38677676 
H       0.68405448       0.82260338       3.02297390 
H      -0.05678488      -0.00189982       4.12771347 
H       1.49797524      -2.26282516       1.79096039 
H       2.96674169      -1.93980650       2.22154041 
H       2.30341606      -0.48925893       3.80973617 
H       1.35236357      -1.71921630       3.97073133 
