24
Properties=species:S:1:pos:R:3 2c24 h20 p=T pbc="F F F" h12=T v,=T c6=T o=T s4=T
V       0.15713964       0.08126415      -0.37380064 
S      -1.44225515       1.78101610       0.11687109 
S       1.13251917      -1.89686288       0.58610224 
S      -1.87121145      -1.21101920      -0.78121014 
S       1.76992590       1.02151493       1.11425082 
O       0.72699523       0.32267961      -1.86977975 
C      -0.71170010       3.45927683       0.19771944 
H      -0.98605291       3.94783277      -0.59386856 
H      -1.08906972       3.91746215       0.96616681 
C       0.81072506       3.53320285       0.29903503 
H       1.19880691       3.18559408      -0.51922505 
H       1.07721085       4.46213635       0.38289037 
C       1.36341207       2.75137069       1.48291124 
H       0.71053186       2.77049798       2.19878597 
H       2.16391570       3.19678118       1.80270458 
C       0.62454083      -3.16201576      -0.62759048 
C      -1.79734700      -2.79489414       0.12537563 
C      -0.74206220      -3.77611731      -0.36335456 
H       0.61864278      -2.76064873      -1.50966146 
H       1.28731484      -3.87090813      -0.63256411 
H      -1.63000194      -2.60472701       1.06317334 
H      -2.66519462      -3.22364605       0.06701551 
H      -1.05951142      -4.18828139      -1.18106902 
H      -0.64308259      -4.47763958       0.29746886 
