24
Properties=species:S:1:pos:R:3 2c24 h20 p=T pbc="F F F" h12=T v,=T c6=T o=T s4=T
V       0.38420791       0.03884072       0.14798421 
S      -0.81377542       2.01574787       0.73505595 
S       0.08108477      -2.05866330      -0.98971461 
S       0.40768139       1.12972460      -2.03366843 
S      -0.71965467      -1.25472049       1.82358410 
O       1.91896057       0.19864051       0.63785014 
C      -0.96052994       2.26140047       2.54473109 
H      -0.37135287       2.98792846       2.80084708 
H      -1.86915867       2.54285633       2.73974240 
C      -0.63684174       1.05387105       3.42257328 
H       0.30359360       0.83647373       3.32609154 
H      -0.79410135       1.28677772       4.35100623 
C      -1.46917491      -0.17206306       3.07243849 
H      -2.33365347       0.12260621       2.74849113 
H      -1.61795602      -0.68759671       3.88086510 
C       1.29272727      -1.89982407      -2.34558935 
C      -0.16585182      -0.03210108      -3.32100455 
C       0.75723069      -1.21100357      -3.59190991 
H       2.05790029      -1.40167367      -2.02072645 
H       1.60254071      -2.78639337      -2.59019727 
H      -1.03570394      -0.37613711      -3.05903332 
H      -0.28586948       0.45977553      -4.14807575 
H       1.50780316      -0.89978935      -4.12020609 
H       0.27706968      -1.86337659      -4.12339172 
