24
Properties=species:S:1:pos:R:3 2c24 h20 p=T pbc="F F F" h12=T v,=T c6=T o=T s4=T
V      -0.26099715       0.32078417      -0.00128287 
S      -1.51449136      -1.62602162      -0.57284095 
S       1.97345156       0.99922293       0.57554043 
S       0.49199785       0.07796890      -2.30871134 
S      -0.15887955      -0.29266237       2.30364740 
O      -1.23839410       1.60875179      -0.08377510 
C      -2.84049650      -2.01125983       0.63136339 
H      -3.69313050      -1.79482899       0.22302422 
H      -2.83245777      -2.96830039       0.79525889 
C      -2.76284984      -1.29625109       1.97904353 
H      -2.89007133      -0.34477817       1.83939067 
H      -3.48344069      -1.61211759       2.54644201 
C      -1.43671298      -1.52128202       2.69249248 
H      -1.10342928      -2.40022038       2.45694124 
H      -1.59388804      -1.51300910       3.64993277 
C       2.35408045       2.14838980      -0.79056387 
C       2.31593751       0.14019568      -2.38209722 
C       2.93617175       1.48411621      -2.02929528 
H       1.54096600       2.61246175      -1.04088685 
H       2.98424532       2.81326656      -0.47016779 
H       2.67098182      -0.53114818      -1.77639646 
H       2.59626637      -0.10104239      -3.27854216 
H       2.82403133       2.08280141      -2.78315915 
H       3.88749119       1.35939945      -1.89492600 
