24
Properties=species:S:1:pos:R:3 2c24 h20 p=T pbc="F F F" h12=T v,=T c6=T o=T s4=T
V       0.20181397      -0.02921097       0.35977977 
S      -0.25511081       2.28040831      -0.02082197 
S      -0.13425706      -2.18860361      -0.64513067 
S       1.91620299       0.39990440      -1.32156409 
S      -2.06226645      -0.48639220       0.96341321 
O       1.06944808      -0.16826243       1.71950257 
C      -1.33452922       3.02417547       1.25920635 
H      -0.79091307       3.60457181       1.81435453 
H      -1.99250154       3.58239993       0.81388527 
C      -2.07603900       2.04962460       2.17239971 
H      -1.42930924       1.56803336       2.71165793 
H      -2.64809630       2.55237537       2.77319581 
C      -2.92610293       1.04800676       1.40269824 
H      -3.24152909       1.46983700       0.58927299 
H      -3.70338738       0.82391971       1.93849506 
C       1.59064755      -2.72701482      -0.90304777 
C       1.82782892      -0.85930701      -2.64163613 
C       2.20267596      -2.27232889      -2.21956861 
H       2.13337458      -2.38766088      -0.17540379 
H       1.62208991      -3.69622836      -0.86485078 
H       0.92235103      -0.87306694      -2.99313704 
H       2.41518759      -0.58917354      -3.36443022 
H       3.16763417      -2.32675864      -2.14743510 
H       1.92725952      -2.88613246      -2.91671208 
