24
Properties=species:S:1:pos:R:3 2c24 h20 p=T pbc="F F F" h12=T v,=T c6=T o=T s4=T
V       0.16768780      -0.01609369      -0.37768431 
S       0.57593903       2.16519802       0.49597271 
S      -0.86995376      -2.10210262       0.22033914 
S      -2.06500802       0.91544498      -0.68992132 
S       1.84429027      -1.00004537       1.00806150 
O       0.73632934      -0.08222044      -1.89203050 
C       2.35801947       2.54586753       0.68593654 
H       2.60799654       3.17941781      -0.00449335 
H       2.48441187       2.98582405       1.54227537 
C       3.31750806       1.35942987       0.61344121 
H       3.28769540       0.98348175      -0.28029430 
H       4.22121903       1.67349688       0.77354190 
C       2.98685874       0.26875248       1.62308530 
H       2.59777719       0.68153371       2.40878388 
H       3.81212622      -0.16274752       1.89549249 
C      -2.15989914      -2.23248641      -1.06447399 
C      -3.31836788      -0.21438497       0.00906860 
C      -3.47078333      -1.54474745      -0.71355670 
H      -1.81876868      -1.84851040      -1.88628413 
H      -2.33756293      -3.17183100      -1.23147645 
H      -3.08897165      -0.39218188       0.93610585 
H      -4.17652479       0.23721038       0.00438238 
H      -3.97079525      -1.39634271      -1.53042529 
H      -3.99296358      -2.14082682      -0.15621010 
