24
Properties=species:S:1:pos:R:3 2c24 h20 p=T pbc="F F F" h12=T v,=T c6=T o=T s4=T
V       0.18766171      -0.29967509       0.21447975 
S      -0.59043844      -1.25773409      -1.82627067 
S       0.23967747       1.79748183       1.39133680 
S      -2.17873848      -0.47000249       0.78133562 
S       1.99895883       0.81075124      -0.87437482 
O       0.85058216      -1.46951028       1.11614069 
C       0.75987582      -1.90503509      -2.88195008 
H       0.73299101      -2.87391250      -2.84845834 
H       0.58026546      -1.64182193      -3.79918065 
C       2.17562842      -1.45540407      -2.52560081 
H       2.41171493      -1.81526236      -1.65625962 
H       2.79612209      -1.81955664      -3.17624998 
C       2.32476220       0.05953687      -2.49397172 
H       1.71585836       0.44438741      -3.14221645 
H       3.22753440       0.28843157      -2.76613698 
C      -0.70501748       1.37820662       2.89581795 
C      -2.78611442       1.12925048       1.42125589 
C      -2.21044643       1.55400011       2.76419157 
H      -0.52003072       0.45648374       3.13116092 
H      -0.39032650       1.93575574       3.62515401 
H      -2.58356979       1.81872588       0.76762619 
H      -3.75126123       1.08161565       1.50259579 
H      -2.64425849       1.04001659       3.46200116 
H      -2.42672961       2.48677498       2.91174052 
