24
Properties=species:S:1:pos:R:3 2c24 h20 p=T pbc="F F F" h12=T v,=T c6=T o=T s4=T
V       0.39546557       0.04616988      -0.11179877 
S      -0.88682937      -0.22094514      -2.10487388 
S       0.13354336       0.14134983       2.27736486 
S       0.02796393      -2.36157193       0.02202498 
S      -0.35267229       2.29248377       0.19448838 
O       1.96120956       0.14143270      -0.51222493 
C      -0.81156778       1.23582888      -3.21345467 
H      -0.26149020       1.00649553      -3.97856173 
H      -1.70758945       1.41229125      -3.54339281 
C      -0.26548253       2.52571089      -2.60394374 
H       0.66933101       2.39744363      -2.37886576 
H      -0.31742091       3.23418609      -3.26449588 
C      -1.02298208       2.95701240      -1.35556048 
H      -1.94610786       2.67459682      -1.44026745 
H      -1.01498759       3.92604323      -1.30677833 
C       1.13339100      -1.29473220       2.79666911 
C      -0.60540393      -2.80743290       1.67613099 
C       0.37581830      -2.61380108       2.82286190 
H       1.88699485      -1.38207397       2.19364993 
H       1.48650157      -1.12228735       3.68402372 
H      -1.39767084      -2.27479981       1.85570706 
H      -0.87902587      -3.73763622       1.66043258 
H       1.01768106      -3.33975760       2.80526896 
H      -0.11024298      -2.67447480       3.65873342 
