24
Properties=species:S:1:pos:R:3 2c24 h20 p=T pbc="F F F" h12=T v,=T c6=T o=T s4=T
V      -0.17174146      -0.08900624       0.36552209 
S      -1.93809586       0.13599308      -1.22109273 
S       2.22625866       0.02215809       0.51719020 
S      -0.19643915       2.34480849       0.20389675 
S       0.45707809      -2.23121788      -0.48003302 
O      -0.81817461      -0.35123225       1.82645743 
C      -2.90741628      -1.40230712      -1.44660690 
H      -3.77130695      -1.28118483      -1.02282603 
H      -3.06550483      -1.52443081      -2.39684202 
C      -2.28382229      -2.68458973      -0.89852834 
H      -2.23081561      -2.62175060       0.06802765 
H      -2.85962204      -3.43425699      -1.11628390 
C      -0.89252345      -2.95119240      -1.45664828 
H      -0.84678269      -2.59641470      -2.35727896 
H      -0.75840968      -3.91062424      -1.51113126 
C       2.43907578       1.40077102       1.69440685 
C       1.49315951       2.96960571      -0.09759679 
C       2.47233082       2.77917930       1.05142168 
H       1.71310048       1.37545985       2.33588848 
H       3.26675822       1.26649224       2.18301048 
H       1.85011804       2.52362914      -0.88329263 
H       1.43946865       3.91624172      -0.30104496 
H       2.28209242       3.44271962       1.73174055 
H       3.36878237       2.94591265       0.72401877 
