24
Properties=species:S:1:pos:R:3 2c24 h20 p=T pbc="F F F" h12=T v,=T c6=T o=T s4=T
V       0.26887096      -0.12293934       0.28916772 
S       0.14261787       2.25642675       0.39239728 
S      -0.64898097      -1.99008304      -0.91793109 
S       1.61263628       0.39009451      -1.68092819 
S      -1.84754067      -0.38732314       1.36171201 
O       1.38076262      -0.62912108       1.35145173 
C      -0.47974387       2.87817704       1.99953717 
H       0.26547551       3.26691610       2.48337386 
H      -1.11444313       3.59159253       1.82333225 
C      -1.15510644       1.85322914       2.90886410 
H      -0.49706783       1.19804480       3.18941288 
H      -1.48357485       2.30311192       3.70301636 
C      -2.31464244       1.13517563       2.23198690 
H      -2.72621118       1.74102069       1.59743352 
H      -2.97948792       0.91678043       2.90410920 
C       0.85602358      -2.68988787      -1.67749562 
C       1.01692110      -0.57352900      -3.11360635 
C       1.22781012      -2.07751573      -3.01962837 
H       1.59742390      -2.56831654      -1.06534738 
H       0.72808568      -3.64444301      -1.79698999 
H       0.06732356      -0.40229683      -3.22575130 
H       1.46573511      -0.25012060      -3.91007770 
H       2.16044636      -2.26988769      -3.19988608 
H       0.70252144      -2.50678628      -3.71130508 
