24
Properties=species:S:1:pos:R:3 2c24 h20 p=T pbc="F F F" h12=T v,=T c6=T o=T s4=T
V      -0.33596538      -0.00566053      -0.24107855 
S      -0.34966110      -2.00741515       1.05536661 
S       0.96459855       1.98902374      -0.58098064 
S       1.37442511      -1.23657285      -1.46973885 
S      -1.01829466       1.32823552       1.61757587 
O      -1.59393311      -0.03967120      -1.25957292 
C      -1.80144717      -2.13991100       2.16512706 
H      -2.40028361      -2.81090170       1.80217480 
H      -1.49477199      -2.46188445       3.02833990 
C      -2.60260206      -0.85910058       2.39136534 
H      -3.01448047      -0.59242353       1.55456879 
H      -3.31232515      -1.03845441       3.02783149 
C      -1.74862843       0.28834748       2.91326505 
H      -1.03418681      -0.07882562       3.45534636 
H      -2.29631145       0.84688563       3.48732323 
C       1.42241108       1.81311303      -2.33915210 
C       2.86378509      -0.20005534      -1.67818991 
C       2.69234219       1.01152119      -2.58260783 
H       0.69076055       1.38476477      -2.80860364 
H       1.53672574       2.69838267      -2.72000948 
H       3.14910077       0.10773779      -0.80212440 
H       3.57538161      -0.75246005      -2.03717881 
H       2.69703818       0.71142992      -3.50414641 
H       3.45500585       1.59680920      -2.46260719 
