24
Properties=species:S:1:pos:R:3 2c24 h20 p=T pbc="F F F" h12=T v,=T c6=T o=T s4=T
V      -0.28759036      -0.10750107      -0.27705405 
S      -1.36298588       1.20078351       1.40220027 
S       1.87806936      -0.97172735      -0.86764379 
S      -0.39906471      -1.80060343       1.47541985 
S       0.73512058       1.80991534      -1.26549971 
O      -1.40556147      -0.61778078      -1.33096371 
C      -2.08792038       2.75379933       0.75457534 
H      -3.05252941       2.65458149       0.73866438 
H      -1.88049384       3.46839565       1.37841773 
C      -1.63094599       3.18821283      -0.63681518 
H      -1.93835896       2.53770924      -1.28745432 
H      -2.04093340       4.04049877      -0.85241397 
C      -0.11850955       3.32509830      -0.74675008 
H       0.23125931       3.59840831       0.11467806 
H       0.08413141       4.02876772      -1.38334283 
C       1.56245959      -2.76892478      -0.82099957 
C       1.24277742      -2.56461821       1.71343114 
C       1.74452376      -3.40547500       0.54874553 
H       0.65537868      -2.93221044      -1.12053504 
H       2.16115647      -3.20538782      -1.44780464 
H       1.88825284      -1.85905060       1.88421833 
H       1.20978522      -3.12483148       2.50429536 
H       1.27921329      -4.25558387       0.55929311 
H       2.68674961      -3.58706903       0.68235731 
