24
Properties=species:S:1:pos:R:3 2c24 h20 p=T pbc="F F F" h12=T v,=T c6=T o=T s4=T
V      -0.38530188       0.00044018       0.15021955 
S       0.47020377       2.21642721       0.36350516 
S       0.25217652      -2.17770493      -0.64669355 
S       1.06901959      -0.36369350       2.07441877 
S      -0.71455934       0.24062694      -2.20208741 
O      -1.86240973      -0.05026427       0.81094021 
C      -0.47766090       3.45305107      -0.60040366 
H      -0.99415722       3.99018832       0.02030807 
H       0.15479315       4.04506690      -1.03900613 
C      -1.42988023       2.90304319      -1.66072339 
H      -2.13812282       2.40631239      -1.22181578 
H      -1.83720931       3.64470977      -2.13504138 
C      -0.73484394       1.99501680      -2.66605913 
H       0.17935561       2.29706824      -2.77605536 
H      -1.17937564       2.08389466      -3.52393828 
C       0.14663874      -3.15737520       0.88979977 
C       2.13814469      -1.81609440       1.78542626 
C       1.41650977      -3.15444603       1.72763280 
H      -0.58090869      -2.81154131       1.42855122 
H      -0.07017109      -4.07462828       0.65857953 
H       2.61332054      -1.68622318       0.94818447 
H       2.80128068      -1.85552221       2.49188907 
H       1.19164755      -3.42270913       2.63139276 
H       2.02472144      -3.81797316       1.36926375 
