24
Properties=species:S:1:pos:R:3 2c24 h20 p=T pbc="F F F" h12=T v,=T c6=T o=T s4=T
V       0.18723012      -0.14353432      -0.33965633 
S       1.62065405      -0.59149755       1.51307245 
S      -1.94693740       0.83997277      -0.85327885 
S       1.05971436       2.11072212      -0.01211086 
S      -1.30453416      -1.91117708       0.25155139 
O       0.93257695      -0.61555261      -1.69709037 
C       1.91738289      -2.37940872       1.78164620 
H       2.82514303      -2.58084986       1.50603608 
H       1.85784871      -2.55679977       2.73445314 
C       0.97578835      -3.34040422       1.05818533 
H       1.11311323      -3.25659394       0.10157325 
H       1.19704301      -4.25029012       1.31140039 
C      -0.49092844      -3.08177392       1.37463366 
H      -0.55719589      -2.74044798       2.27917790 
H      -0.96894018      -3.92554603       1.34273159 
C      -1.44642740       2.20779248      -1.95339829 
C      -0.31603954       3.30959986       0.06539360 
C      -1.08879885       3.49845242      -1.23170310 
H      -0.68117902       1.92201175      -2.47484222 
H      -2.17156049       2.38930180      -2.57231580 
H      -0.93697815       3.02074613       0.75432843 
H       0.04000418       4.16937378       0.33818526 
H      -0.56019954       4.05019491      -1.82791881 
H      -1.90640408       3.98022738      -1.03668351 
