24
Properties=species:S:1:pos:R:3 2c24 h20 p=T pbc="F F F" h12=T v,=T c6=T o=T s4=T
V      -0.25743514      -0.31231469       0.08491363 
S       0.64905957      -0.70021787      -2.08667049 
S      -0.15059354       1.26527124       1.89752855 
S      -1.58705379       1.31670672      -1.15144811 
S       1.76985045      -0.96524125       1.16345348 
O      -1.33736428      -1.47370503       0.41033011 
C       1.62854293      -2.24473220      -2.19573028 
H       1.11465466      -2.89469200      -2.69975314 
H       2.43509349      -2.05703016      -2.70277774 
C       2.03699588      -2.88502994      -0.87032723 
H       1.24008791      -3.18618381      -0.40639514 
H       2.58713376      -3.66317065      -1.05146028 
C       2.80881891      -1.93323102       0.03336263 
H       3.31597226      -1.32185930      -0.52171858 
H       3.44183914      -2.44821283       0.55828497 
C      -1.88127863       1.84165000       1.96249349 
C      -1.51483806       2.94260248      -0.32243580 
C      -2.19160487       3.00993036       1.03871656 
H      -2.46326027       1.10165156       1.73253881 
H      -2.08687245       2.10395686       2.87394772 
H      -0.58206654       3.19167652      -0.21504928 
H      -1.92600067       3.60222635      -0.90229376 
H      -3.15051500       3.05211078       0.90446921 
H      -1.92214302       3.83070976       1.47727050 
