24
Properties=species:S:1:pos:R:3 2c24 h20 p=T pbc="F F F" h12=T v,=T c6=T o=T s4=T
V       0.04688910      -0.31296008       0.26623494 
S       0.29328314       1.71653329       1.49441481 
S      -0.38583737      -1.10431908      -1.96362247 
S       2.30008207       0.27213394      -0.46244421 
S      -2.32330085      -0.06404015       0.12592588 
O       0.31259007      -1.55859334       1.26562031 
C      -0.97511943       1.93036710       2.79911256 
H      -0.55079231       1.79181090       3.66011001 
H      -1.28439409       2.85044186       2.77333263 
C      -2.19524892       1.01493433       2.71680142 
H      -1.91252172       0.09833219       2.86135173 
H      -2.81499637       1.24979215       3.42512248 
C      -2.91542497       1.10810358       1.37853640 
H      -2.81328600       2.00797955       1.03373803 
H      -3.86234566       0.95445742       1.52413316 
C       1.14643434      -2.03428542      -2.30860041 
C       2.40878619       0.19576920      -2.28408232 
C       2.27637248      -1.19526711      -2.88638349 
H       1.45338552      -2.44244084      -1.48496845 
H       0.94154615      -2.74962356      -2.93160497 
H       1.71211722       0.76044142      -2.65748567 
H       3.26134570       0.56838477      -2.55738348 
H       3.11176730      -1.66878794      -2.75522061 
H       2.13828592      -1.10646206      -3.84119438 
