24
Properties=species:S:1:pos:R:3 2c24 h20 p=T pbc="F F F" h12=T v,=T c6=T o=T s4=T
V      -0.25359351      -0.11410570       0.30609453 
S       0.11072420      -2.02512735      -1.07348802 
S       0.37187685       2.20116342       0.49070514 
S      -1.70608846       0.50717323      -1.55252264 
S       1.91178546      -0.28502962       1.29673428 
O      -1.31359449      -0.50658193       1.46511597 
C       0.92643723      -3.40840986      -0.19147444 
H       0.26678944      -4.10334806      -0.04149571 
H       1.60964323      -3.77838802      -0.77388213 
C       1.57525659      -3.07040184       1.14952977 
H       0.88353037      -2.81247234       1.77879614 
H       2.01289469      -3.86302152       1.49765442 
C       2.59723610      -1.94655022       1.04559351 
H       3.00930255      -1.98258185       0.16923855 
H       3.29324028      -2.09784302       1.70449640 
C      -1.25358707       3.01654920       0.33348922 
C      -1.33204265       2.20980996      -2.09762028 
C      -1.67859126       3.30406881      -1.09872902 
H      -1.92424791       2.45351294       0.74868038 
H      -1.22938655       3.85373824       0.82374566 
H      -0.38353787       2.26650025      -2.29950472 
H      -1.81438529       2.38228440      -2.92102283 
H      -2.63750969       3.44379852      -1.11489189 
H      -1.25884538       4.12862459      -1.38602544 
