24
Properties=species:S:1:pos:R:3 2c24 h20 p=T pbc="F F F" h12=T v,=T c6=T o=T s4=T
V       0.03011513      -0.26925989      -0.31243533 
S      -1.58624618      -1.12476253       1.21840447 
S       1.49604872       1.61270807      -0.62065709 
S       1.56121475      -1.08151126       1.40400534 
S      -1.48119895       1.37697792      -1.15224424 
O       0.23489244      -1.34542823      -1.50444971 
C      -3.25901340      -1.28547660       0.48845445 
H      -3.43890450      -2.22794848       0.34719626 
H      -3.90509341      -0.96127054       1.13677848 
C      -3.49800115      -0.55227181      -0.83018267 
H      -2.94096233      -0.94963520      -1.51778650 
H      -4.42415643      -0.66952983      -1.09371784 
C      -3.19353652       0.93699087      -0.74251698 
H      -3.38427145       1.23971448       0.15807930 
H      -3.78831237       1.41149492      -1.34463985 
C       3.12567458       0.79050378      -0.62251660 
C       2.75384217       0.22801924       1.84985649 
C       3.74147175       0.60869790       0.75671712 
H       3.03307082      -0.08021147      -1.03779841 
H       3.73565979       1.31208147      -1.16813301 
H       2.25666864       1.02236411       2.10572195 
H       3.25449807      -0.06348985       2.62751948 
H       4.42245917      -0.07885410       0.70343899 
H       4.17998486       1.43443338       1.01065653 
