24
Properties=species:S:1:pos:R:3 2c24 h20 p=T pbc="F F F" h12=T v,=T c6=T o=T s4=T
V      -0.09102050       0.33740888       0.22112023 
S       0.03900471       0.99362054      -2.06808462 
S       0.12127771      -1.60773505       1.62008767 
S       2.33725058       0.33976031      -0.01057122 
S      -2.21676941      -0.70412440      -0.08847336 
O      -0.35973222       1.65473669       1.12301368 
C      -1.54100608       1.65107134      -2.72240149 
H      -1.44992218       2.61094827      -2.82684251 
H      -1.68255789       1.27563868      -3.60663358 
C      -2.78878241       1.37962905      -1.88402117 
H      -2.71058091       1.85101557      -1.03982439 
H      -3.56452952       1.73011806      -2.34914237 
C      -3.00523776      -0.10203237      -1.60813379 
H      -2.66123299      -0.61029775      -2.35808184 
H      -3.95895877      -0.27111166      -1.55075104 
C       1.52349622      -1.12294619       2.68332179 
C       3.02719716      -1.23297532       0.61111186 
C       2.89317029      -1.45511968       2.11043531 
H       1.47696864      -0.16793941       2.84136200 
H       1.43025958      -1.56689397       3.54124942 
H       2.58565055      -1.96558821       0.15073443 
H       3.96792966      -1.26959257       0.37857123 
H       3.55752606      -0.91362829       2.56290482 
H       3.09233449      -2.38326305       2.30408850 
