24
Properties=species:S:1:pos:R:3 2c24 h20 p=T pbc="F F F" h12=T v,=T c6=T o=T s4=T
V       0.33426805       0.21462286      -0.11500236 
S      -0.68040736      -0.64735025      -2.09374321 
S       0.04026093       0.24495894       2.27213082 
S       1.07701690      -2.10029562       0.08415449 
S      -1.33847982       1.89940110       0.13576653 
O       1.69641277       0.98712642      -0.52581904 
C      -1.25411683       0.66111782      -3.24072837 
H      -0.65400913       0.68117019      -4.00232970 
H      -2.13252626       0.41126200      -3.57061006 
C      -1.34428153       2.07450049      -2.66825305 
H      -0.45186485       2.38205394      -2.44466347 
H      -1.70168964       2.66825657      -3.34698495 
C      -2.22352648       2.15528126      -1.42781357 
H      -2.92351595       1.48905773      -1.50031193 
H      -2.64844686       3.02727339      -1.40464583 
C       1.57145529      -0.58123146       2.82399769 
C       0.69679078      -2.73865817       1.75266727 
C       1.48073643      -2.09850186       2.88885001 
H       2.28934576      -0.33923483       2.21963821 
H       1.80438767      -0.24660827       3.70467490 
H      -0.25106700      -2.61036268       1.92219111 
H       0.86637497      -3.69339894       1.76290839 
H       2.37891617      -2.46261769       2.88711992 
H       1.06663720      -2.34772101       3.72851047 
