24
Properties=species:S:1:pos:R:3 2c24 h20 p=T pbc="F F F" h12=T v,=T c6=T o=T s4=T
V      -0.24819104       0.18263576       0.27580615 
S       1.92736247       1.12512685       0.53398559 
S      -1.43472967      -1.43936275      -1.04593976 
S       0.80301846      -1.67006382       1.46435558 
S      -0.65856894       1.41256240      -1.72876828 
O      -1.22366049       0.81521901       1.40242415 
C       1.98090274       2.92427642       0.19193225 
H       2.08362155       3.39047354       1.03613424 
H       2.77281906       3.10848490      -0.33890553 
C       0.77292544       3.51396534      -0.53371648 
H      -0.00581716       3.44283092       0.04029467 
H       0.93350692       4.45586664      -0.70104663 
C       0.48066827       2.81944372      -1.85678594 
H       1.31692013       2.50767530      -2.23438140 
H       0.10401713       3.46864459      -2.47171398 
C      -1.96486470      -2.61978922       0.24140402 
C       0.49987331      -3.23671364       0.57569090 
C      -0.94754749      -3.70570350       0.55826531 
H      -2.15567706      -2.12726872       1.05392706 
H      -2.78999252      -3.04221660      -0.04589669 
H       0.80077105      -3.13266772      -0.34206039 
H       1.04220343      -3.93065083       0.98155150 
H      -1.15922104      -4.08478575       1.42475312 
H      -1.03523918      -4.41246710      -0.09855540 
