24
Properties=species:S:1:pos:R:3 2c24 h20 p=T pbc="F F F" h12=T v,=T c6=T o=T s4=T
V      -0.32922842      -0.07390098      -0.23910444 
S       0.79791089       1.82606644      -1.13780345 
S      -0.16521660      -1.66381930       1.55840083 
S      -1.06340786       1.58103512       1.39562916 
S       1.31414850      -1.58286329      -1.08868858 
O      -1.67316422      -0.33535806      -1.10307614 
C       1.42258206       1.55801879      -2.83919776 
H       0.86447350       2.06366558      -3.45026575 
H       2.31951380       1.92589455      -2.89427829 
C       1.47046036       0.11054017      -3.32501829 
H       0.56484569      -0.23124298      -3.38854221 
H       1.85942117       0.08796855      -4.21336724 
C       2.28055340      -0.79491520      -2.40731073 
H       2.98867126      -0.27183378      -2.00227990 
H       2.69670922      -1.48825035      -2.94356164 
C      -1.71749922      -1.33401086       2.46025937 
C      -0.76910719       0.96226419       3.08871013 
C      -1.61847163      -0.23039608       3.50274350 
H      -2.40348121      -1.09407465       1.81913627 
H      -2.00042745      -2.15152565       2.90008172 
H       0.16713477       0.71548116       3.16733316 
H      -0.93146736       1.68598673       3.71341684 
H      -2.51234118       0.08372301       3.70679400 
H      -1.24851512      -0.60556443       4.31576192 
