24
Properties=species:S:1:pos:R:3 2c24 h20 p=T pbc="F F F" h12=T v,=T c6=T o=T s4=T
V      -0.37494512       0.02844390       0.17213582 
S       1.10202122      -0.87073504       1.81470297 
S      -0.38249559       0.81258763      -2.10180941 
S      -0.22160098      -2.24637382      -0.69497248 
S       0.51260001       2.23005007       0.42638390 
O      -1.87138896       0.06996130       0.78849812 
C       1.27297330       0.19601986       3.29443794 
H       0.79770946      -0.22443857       4.02785932 
H       2.21231077       0.22779929       3.53833992 
C       0.76679756       1.63096768       3.15945967 
H      -0.19498907       1.61595926       3.03403975 
H       0.95155154       2.11006208       3.98244105 
C       1.40824752       2.37766380       1.99787705 
H       2.30904784       2.04260087       1.87383405 
H       1.47325703       3.31733594       2.23080274 
C      -1.54847140      -0.36106857      -2.87300027 
C       0.17923576      -2.21178755      -2.47658614 
C      -0.90833573      -1.64562717      -3.37765928 
H      -2.23236041      -0.58925050      -2.22538286 
H      -1.98608032       0.08078951      -3.61803878 
H       0.98615611      -1.68518932      -2.59989995 
H       0.37655838      -3.11629686      -2.76523868 
H      -1.60063015      -2.31556722      -3.48357877 
H      -0.52808729      -1.47829326      -4.25288985 
