24
Properties=species:S:1:pos:R:3 2c24 h20 p=T pbc="F F F" h12=T v,=T c6=T o=T s4=T
V       0.23011424      -0.33608894       0.07152133 
S      -0.29735145       0.63505751       2.18496252 
S      -0.14503383      -0.00371590      -2.28104268 
S       1.79817947       1.53127562       0.00588659 
S      -1.97049582      -1.22448906      -0.18830315 
O       1.20487923      -1.60577136       0.31382302 
C      -1.28556562      -0.46986470       3.26171035 
H      -0.71041117      -0.79527405       3.97155120 
H      -1.98670858       0.05864124       3.67635840 
C      -1.93475383      -1.67546787       2.58452210 
H      -1.23878477      -2.27340959       2.26974964 
H      -2.46657982      -2.15653272       3.23774607 
C      -2.82464974      -1.28699454       1.41172158 
H      -3.21098852      -0.41653333       1.59098304 
H      -3.55295727      -1.92512012       1.34984888 
C       1.56358897       0.23263112      -2.87807870 
C       1.62864826       2.43626367      -1.57153832 
C       2.06129241       1.66876701      -2.81212287 
H       2.15586971      -0.32512004      -2.35148906 
H       1.61555728      -0.07159545      -3.79817001 
H       0.69862273       2.69548071      -1.67873662 
H       2.15204007       3.25079381      -1.51680929 
H       3.02976234       1.66268889      -2.84871819 
H       1.74283915       2.14245543      -3.59495419 
