24
Properties=species:S:1:pos:R:3 2c24 h20 p=T pbc="F F F" h12=T v,=T c6=T o=T s4=T
V      -0.04220988      -0.17183940      -0.37378228 
S       0.81795120       2.03005270      -0.68965138 
S      -0.71596278      -1.67932783       1.37530347 
S      -2.10357611       1.07382414       0.01258347 
S       2.06688772      -1.00231831       0.37552425 
O      -0.30151490      -0.83973696      -1.82555502 
C       2.47143531       2.05386219      -1.47846670 
H       2.36731039       2.36357186      -2.39159640 
H       3.02026948       2.70536411      -1.01244170 
C       3.22861322       0.72749174      -1.50898373 
H       2.74719839       0.10207741      -2.07297454 
H       4.10275903       0.87154458      -1.90405551 
C       3.40568897       0.11552372      -0.12607859 
H       3.47123636       0.83163208       0.52352698 
H       4.24253524      -0.37523547      -0.10852616 
C      -2.47665872      -1.92868832       0.96363254 
C      -2.88258269       0.52749155       1.57164825 
C      -3.41744612      -0.89700446       1.56786153 
H      -2.57512522      -1.91094428      -0.00030157 
H      -2.74498041      -2.80975115       1.26949897 
H      -2.22993209       0.60930571       2.28648116 
H      -3.61460248       1.12935674       1.77731526 
H      -4.25133125      -0.91187516       1.07417678 
H      -3.61427273      -1.15535425       2.48062258 
