24
Properties=species:S:1:pos:R:3 2c24 h20 p=T pbc="F F F" h12=T v,=T c6=T o=T s4=T
V       0.33707784      -0.23902504       0.01640743 
S      -0.36111837       0.17127620       2.25965376 
S      -0.27910834       0.26871019      -2.25257579 
S       1.14639060       2.05244329       0.22705550 
S      -1.42624059      -1.80424487      -0.35808318 
O       1.70728973      -1.10063366       0.04987836 
C      -0.83054490      -1.35328046       3.16085959 
H      -0.13411638      -1.55051960       3.80634543 
H      -1.64431273      -1.17263181       3.65885654 
C      -1.05922246      -2.60168304       2.31073853 
H      -0.21969156      -2.86250032       1.90067615 
H      -1.34684826      -3.32767159       2.88621735 
C      -2.10130740      -2.39221144       1.22056976 
H      -2.75519927      -1.75043662       1.53623661 
H      -2.56314019      -3.23162177       1.06706042 
C       1.19768879       1.17832778      -2.82123199 
C       0.57158211       3.05231658      -1.18922913 
C       1.16540537       2.67270026      -2.53776445 
H       1.97966564       0.79847213      -2.39297812 
H       1.29414053       1.04619482      -3.77781991 
H      -0.39520376       2.97691998      -1.24643816 
H       0.77976945       3.98300703      -1.01353929 
H       2.07056213       3.01605710      -2.58367210 
H       0.65251118       3.10843419      -3.23468163 
