24
Properties=species:S:1:pos:R:3 2c24 h20 p=T pbc="F F F" h12=T v,=T c6=T o=T s4=T
V       0.19113720      -0.31892859       0.18103804 
S       1.70025610       1.52771129       0.20249576 
S      -2.03164414      -0.90469641      -0.52740002 
S       0.87177145      -0.38891994      -2.16033444 
S      -1.12743445       0.60213963       1.94525185 
O       0.94328218      -1.60969176       0.80487992 
C       2.15728765       2.06808391       1.89244423 
H       3.07254213       1.79513948       2.06090342 
H       2.13530172       3.03853741       1.91672581 
C       1.28636760       1.54295346       3.03228832 
H       1.39387220       0.58087695       3.09425994 
H       1.59159570       1.93032549       3.86759817 
C      -0.18961194       1.86755274       2.84679697 
H      -0.26447843       2.70757010       2.36944922 
H      -0.59311685       1.98877911       3.72084062 
C      -1.67727486      -2.22731441      -1.73438296 
C      -0.60079173      -0.45394618      -3.23891814 
C      -1.41663937      -1.73527446      -3.15019051 
H      -0.90227755      -2.72400895      -1.43131006 
H      -2.42946618      -2.84025478      -1.75268180 
H      -1.17829069       0.29469442      -3.01606248 
H      -0.31461582      -0.33564001      -4.15788528 
H      -0.95181480      -2.43116826      -3.63904644 
H      -2.26831076      -1.59003437      -3.58857300 
