24
Properties=species:S:1:pos:R:3 2c24 h20 p=T pbc="F F F" h12=T v,=T c6=T o=T s4=T
V       0.39911352      -0.10830537      -0.00140899 
S       0.23523776       2.01243849       1.07727975 
S      -0.97638053      -1.78146365      -1.04750782 
S       0.08771375       1.27641013      -1.98528903 
S      -0.47409193      -1.26052599       1.89841944 
O       1.96184411      -0.51932975      -0.10091979 
C       0.78601732       1.97921322       2.82437568 
H       1.64187846       2.43181613       2.88112291 
H       0.15190150       2.49150826       3.35192085 
C       0.93353357       0.59983138       3.46394816 
H       1.65034194       0.12075340       3.01935960 
H       1.18175411       0.70819612       4.39540266 
C      -0.34180979      -0.22816225       3.38512436 
H      -1.10267685       0.37124624       3.41488716 
H      -0.38836732      -0.80181974       4.16628621 
C      -0.30239430      -1.77829604      -2.74380859 
C      -1.24534905       0.58772382      -3.02676312 
C      -0.93864671      -0.75530304      -3.67290137 
H       0.65014243      -1.60565548      -2.69854838 
H      -0.42225145      -2.66187691      -3.12687730 
H      -2.04320006       0.49167123      -2.48101583 
H      -1.44895735       1.22596939      -3.72789068 
H      -0.34423647      -0.60746858      -4.42398832 
H      -1.76311591      -1.12549535      -4.02193756 
