24
Properties=species:S:1:pos:R:3 2c24 h20 p=T pbc="F F F" h12=T v,=T c6=T o=T s4=T
V      -0.22556153       0.34073712      -0.06359128 
S       1.84907343       1.02251764       0.89507669 
S      -1.39357144      -1.63946916      -0.77091102 
S      -0.66673249      -0.31743989       2.24343237 
S       0.77080220      -0.06196432      -2.19538373 
O      -1.16669124       1.64570384      -0.24333295 
C       2.82846572       2.11444239      -0.20278363 
H       2.79185940       3.01529367       0.15456058 
H       3.75517791       1.82657775      -0.16826614 
C       2.39955948       2.16564862      -1.66802273 
H       1.51721109       2.56466549      -1.72490686 
H       3.01460180       2.73384780      -2.15775375 
C       2.36723172       0.79163279      -2.32324997 
H       3.04871785       0.23723106      -1.91421399 
H       2.59214571       0.88990346      -3.26198365 
C      -2.84772343      -1.60085603       0.33165634 
C      -1.26590648      -2.04194346       2.29903376 
C      -2.63549441      -2.27556560       1.67860513 
H      -3.09692345      -0.67676659       0.48376667 
H      -3.59009444      -2.03429971      -0.11871505 
H      -0.62069789      -2.60636724       1.84212665 
H      -1.29609498      -2.32752670       3.22527588 
H      -3.31170544      -1.95582440       2.29489596 
H      -2.76692699      -3.22933675       1.57060448 
