24
Properties=species:S:1:pos:R:3 2c24 h20 p=T pbc="F F F" h12=T v,=T c6=T o=T s4=T
V      -0.18005085      -0.31800300       0.19359604 
S       2.15214534      -0.40691495       0.68444707 
S      -1.78192592       0.99865203      -1.02549424 
S       0.59887694      -1.20494065      -1.94107020 
S      -0.53359384       1.50643572       1.69222172 
O      -0.90023707      -1.60231439       0.86653467 
C       2.52254762      -0.22475272       2.46950317 
H       2.79505650      -1.09002431       2.81244910 
H       3.28032549       0.37528015       2.56216517 
C       1.38871830       0.30015797       3.34837067 
H       0.67001998      -0.35126364       3.35893277 
H       1.71313985       0.39923376       4.25716024 
C       0.84055305       1.63781060       2.87036686 
H       1.55957564       2.13614898       2.45352107 
H       0.54040363       2.14394556       3.64186027 
C      -2.40575604      -0.22952389      -2.22304327 
C      -0.08827402      -0.21953955      -3.31686880 
C      -1.59420759      -0.32732595      -3.50615240 
H      -2.41765851      -1.09977331      -1.79677601 
H      -3.32120490      -0.00260642      -2.45170100 
H       0.13735593       0.71368518      -3.16916921 
H       0.34472591      -0.49567463      -4.13945866 
H      -1.79135621      -1.17470209      -3.93323117 
H      -1.88095137       0.37604072      -4.10754361 
