24
Properties=species:S:1:pos:R:3 2c24 h20 p=T pbc="F F F" h12=T v,=T c6=T o=T s4=T
V       0.31439053       0.03963264      -0.26572823 
S       1.09860591       0.72338962       1.88030573 
S      -1.66318396      -0.79473819      -1.35144908 
S      -0.75234981       2.23161466      -0.17931773 
S       0.38683776      -2.27177681       0.32721860 
O       1.49834387       0.26681261      -1.34629017 
C       2.46813414      -0.31557347       2.51414666 
H       3.28860233       0.19878324       2.46088271 
H       2.30090357      -0.49772388       3.45313982 
C       2.69475392      -1.64844754       1.80309219 
H       2.98007333      -1.47578001       0.89217633 
H       3.40814230      -2.12879166       2.25176845 
C       1.44937484      -2.52401647       1.77668578 
H       0.93017620      -2.34838042       2.57586023 
H       1.72335609      -3.45446865       1.80232489 
C      -1.98831227       0.53609559      -2.55763182 
C      -2.52678254       2.08099823      -0.58517079 
C      -2.83457655       1.68060105      -2.02051990 
H      -1.14012730       0.89360009      -2.86086816 
H      -2.43740604       0.15347123      -3.32817442 
H      -2.92335500       1.42328829       0.00962359 
H      -2.95691911       2.93124948      -0.40503482 
H      -2.70676752       2.45399435      -2.59046537 
H      -3.76809411       1.42769965      -2.07712293 
