24
Properties=species:S:1:pos:R:3 2c24 h20 p=T pbc="F F F" h12=T v,=T c6=T o=T s4=T
V       0.16421145       0.19518547       0.32551632 
S       1.32658465      -1.87121968       0.06698689 
S      -1.60355439       1.48059054      -0.67872621 
S      -1.54111273      -1.28892098       1.24175011 
S       1.29235090       1.18368190      -1.53180013 
O       0.72598988       0.94362236       1.64658315 
C       3.11216801      -1.65721405      -0.28329848 
H       3.60889289      -1.90360444       0.51239248 
H       3.36043400      -2.28126579      -0.98456619 
C       3.55806564      -0.25961690      -0.70921605 
H       3.42474692       0.35342873       0.03064212 
H       4.50646420      -0.27851495      -0.91206298 
C       2.80234985       0.25726306      -1.92577516 
H       2.56588933      -0.49659034      -2.48692265 
H       3.39372933       0.83126458      -2.43788541 
C      -2.79603912       1.57299008       0.70009440 
C      -3.15363223      -0.95251809       0.45268262 
C      -3.76560595       0.40295804       0.77432642 
H      -2.30340153       1.62059532       1.53329391 
H      -3.30661481       2.39381372       0.61416691 
H      -3.04472835      -1.02037173      -0.51021315 
H      -3.77853816      -1.64303322       0.72300659 
H      -4.14050170       0.36784013       1.66737182 
H      -4.49504276       0.56648935       0.15804928 
