24
Properties=species:S:1:pos:R:3 2c24 h20 p=T pbc="F F F" h12=T v,=T c6=T o=T s4=T
V       0.32177693      -0.08271215      -0.24625587 
S      -0.74318437       1.87674129      -1.09146520 
S       0.13700981      -1.68521957       1.53800768 
S      -1.60221255      -1.15008044      -1.29943026 
S       1.31346820       1.11070597       1.56806213 
O       1.53459108      -0.48302772      -1.24114260 
C       0.33981024       3.35439662      -1.06993388 
H       0.60104952       3.55216193      -1.98273772 
H      -0.18158922       4.10771050      -0.74819830 
C       1.60712419       3.25541532      -0.22280560 
H       2.19243134       2.58434040      -0.60759507 
H       2.07254623       4.10607630      -0.24967690 
C       1.32181781       2.89342599       1.22834956 
H       0.45941755       3.26000038       1.47529906 
H       1.99195152       3.31322888       1.79062234 
C      -0.13604927      -3.22585406       0.59801411 
C      -2.40997100      -2.28801276      -0.12102037 
C      -1.59296553      -3.51188870       0.26616415 
H       0.36649083      -3.17744052      -0.22920355 
H       0.21664759      -3.96956866       1.11213087 
H      -2.62414836      -1.79277912       0.68675691 
H      -3.24721708      -2.58796757      -0.50759470 
H      -1.62487916      -4.14765678      -0.46465091 
H      -2.00865967      -3.93009021       1.03487992 
