24
Properties=species:S:1:pos:R:3 2c24 h20 p=T pbc="F F F" h12=T v,=T c6=T o=T s4=T
V       0.22294749      -0.33081984      -0.10897840 
S       1.75167341       1.39450060       0.50277777 
S      -2.13791766      -0.75780548      -0.28150179 
S       0.04436709       1.03301779      -2.12348649 
S      -0.34573448      -0.77911742       2.16590144 
O       1.06746841      -1.61197903      -0.62510425 
C       2.79710621       0.95690098       1.94235515 
H       3.69627853       0.78404930       1.62270006 
H       2.84197378       1.72850158       2.53012415 
C       2.34606266      -0.24611211       2.76868890 
H       2.41164568      -1.04590197       2.22368983 
H       2.94413005      -0.35222476       3.52500851 
C       0.91909867      -0.10964160       3.28194992 
H       0.73290526       0.82918257       3.43372690 
H       0.85147127      -0.56491099       4.13612827 
C      -2.30230734      -1.09974721      -2.06693050 
C      -1.71188948       1.35459156      -2.50841078 
C      -2.52019027       0.13555710      -2.92779953 
H      -1.50092218      -1.55197571      -2.37098757 
H      -3.04883688      -1.70554635      -2.19930716 
H      -2.13126524       1.74738446      -1.72516743 
H      -1.75559551       2.01134076      -3.22056517 
H      -2.29540458      -0.08275431      -3.84492640 
H      -3.46091394       0.36607793      -2.90505781 
