24
Properties=species:S:1:pos:R:3 2c24 h20 p=T pbc="F F F" h12=T v,=T c6=T o=T s4=T
V       0.35115993      -0.08072435      -0.20296287 
S       0.90381755       0.21085051       2.09867411 
S      -1.54449135      -0.06690189      -1.68353049 
S       0.19385120       2.35152739      -0.10502254 
S      -0.56871699      -2.24956786       0.18355037 
O       1.71839574      -0.31155732      -1.03863788 
C       1.63038555      -1.28739487       2.86298159 
H       2.57771116      -1.12976011       2.99823466 
H       1.22854564      -1.40610935       3.73892939 
C       1.47117412      -2.59221482       2.08477540 
H       1.97098258      -2.52839799       1.25585571 
H       1.84963268      -3.31850251       2.60462072 
C       0.01827212      -2.91715049       1.76574575 
H      -0.54056585      -2.56750747       2.47605902 
H      -0.08901244      -3.88142640       1.75450584 
C      -1.10423159       1.30576909      -2.80319539 
C      -1.39177339       2.90593350      -0.82226871 
C      -1.54364444       2.67954585      -2.31925433 
H      -0.14250815       1.31218978      -2.92246941 
H      -1.50607260       1.13947694      -3.67077434 
H      -2.11390758       2.44318546      -0.36617784 
H      -1.49598556       3.85329449      -0.64326984 
H      -1.02620815       3.35253173      -2.78686514 
H      -2.47362168       2.80851681      -2.55826666 
