24
Properties=species:S:1:pos:R:3 2c24 h20 p=T pbc="F F F" h12=T v,=T c6=T o=T s4=T
V      -0.35010660      -0.02392528       0.21880720 
S       0.17345423      -2.22363444      -0.53957451 
S       0.48742724       2.22921370       0.13124511 
S      -1.04481349       0.22687666      -2.10598690 
S       1.34842027      -0.08350491       1.89538255 
O      -1.76423765      -0.07027978       1.00560766 
C       0.47697373      -3.40608191       0.82662463 
H      -0.28261098      -4.00649628       0.88231647 
H       1.25348859      -3.94189722       0.59688652 
C       0.70791513      -2.80084857       2.21005043 
H      -0.10632354      -2.36223159       2.50265849 
H       0.90354539      -3.51361864       2.83826335 
C       1.85044500      -1.79465811       2.23226667 
H       2.50955789      -2.05971644       1.57316931 
H       2.27601507      -1.82725402       3.10364028 
C      -0.88133547       3.07840456      -0.72728114 
C      -0.29455322       1.72879750      -2.82526214 
C      -0.78992366       3.04554050      -2.24553969 
H      -1.71747471       2.66895134      -0.45821106 
H      -0.90198688       4.00449005      -0.43786498 
H       0.66780335       1.68088048      -2.70194858 
H      -0.46462653       1.73078180      -3.77996876 
H      -1.66703726       3.23338018      -2.61255217 
H      -0.19507495       3.75346064      -2.53471462 
