24
Properties=species:S:1:pos:R:3 2c24 h20 p=T pbc="F F F" h12=T v,=T c6=T o=T s4=T
V      -0.22526429      -0.32126101       0.13065605 
S       2.06119286      -0.99955003       0.13476224 
S      -1.60576604       1.58477935      -0.36632522 
S       0.05288285      -0.64790239      -2.27061995 
S       0.05109127       0.99252293       2.10475016 
O      -1.14166891      -1.58689956       0.55413211 
C       2.68033485      -1.44385599       1.80091398 
H       2.77953857      -2.40778920       1.84040221 
H       3.56439190      -1.05702657       1.90889132 
C       1.82019359      -1.00484804       2.98452595 
H       0.97425397      -1.47852923       2.95288381 
H       2.26781374      -1.25110849       3.80912030 
C       1.55096121       0.49370426       2.99645362 
H       2.31102802       0.94817129       2.60293969 
H       1.47654495       0.78849659       3.91787863 
C      -2.64542841       0.92258606      -1.71254436 
C      -0.54404721       0.82186164      -3.17587226 
C      -2.04401292       1.06682056      -3.10252314 
H      -2.81125192      -0.01698516      -1.54257972 
H      -3.50174306       1.37896792      -1.69631649 
H      -0.08691320       1.60458784      -2.82658639 
H      -0.29326708       0.73184973      -4.10828890 
H      -2.48758615       0.44381729      -3.69785490 
H      -2.22707957       1.96108064      -3.42718229 
