24
Properties=species:S:1:pos:R:3 2c24 h20 p=T pbc="F F F" h12=T v,=T c6=T o=T s4=T
V       0.34401925      -0.07167035      -0.21803155 
S       0.06283069       2.29252631      -0.07843826 
S      -0.69742867      -2.12028289       0.49213617 
S      -1.43834902       0.17215536      -1.86542320 
S       1.08876272      -0.22294944       2.04513437 
O       1.63611817      -0.38589330      -1.14145705 
C       1.43519848       3.13319950       0.79716522 
H       1.96813048       3.60791940       0.14051278 
H       1.05262802       3.79664565       1.39410076 
C       2.36872833       2.24033308       1.61253006 
H       2.84796629       1.65065634       1.00953648 
H       3.02182154       2.79623534       2.06574721 
C       1.63076922       1.40120501       2.64672914 
H       0.85356892       1.89493205       2.94886875 
H       2.21214819       1.27019636       3.41243116 
C      -1.08908499      -2.88974130      -1.11604381 
C      -2.78508897      -1.00952439      -1.51054575 
C      -2.43093950      -2.47688520      -1.70215089 
H      -0.39105616      -2.65993057      -1.74780504 
H      -1.08121845      -3.85421621      -1.00857854 
H      -3.07360217      -0.87992545      -0.59207056 
H      -3.53852003      -0.79856798      -2.08346166 
H      -2.42708527      -2.67165145      -2.65155145 
H      -3.12492008      -3.01755993      -1.29634323 
