24
Properties=species:S:1:pos:R:3 2c24 h20 p=T pbc="F F F" h12=T v,=T c6=T o=T s4=T
V      -0.26125787       0.25191392      -0.19826080 
S      -1.57007805      -1.26051756       1.10078497 
S       2.03091740       0.77636504      -0.70486605 
S      -0.04316066      -1.71829913      -1.61983775 
S       0.37099888       1.52071140       1.72263809 
O      -1.25897913       1.19566691      -1.05549642 
C      -2.58189245      -0.42593402       2.38004575 
H      -3.50902025      -0.44960913       2.09642370 
H      -2.51693962      -0.94023571       3.20109866 
C      -2.21735611       1.02358217       2.69552052 
H      -2.39280829       1.57051866       1.91381345 
H      -2.78458612       1.34282570       3.41475450 
C      -0.76003631       1.19170630       3.10324666 
H      -0.47003309       0.38551419       3.55606833 
H      -0.69735045       1.92387884       3.73685394 
C       2.06932556       0.47556010      -2.50479521 
C       1.71550164      -2.01464572      -2.01391789 
C       2.37088145      -0.96309033      -2.89708870 
H       1.21111461       0.72549934      -2.87920651 
H       2.74137040       1.05248630      -2.90144921 
H       2.21207073      -2.06982831      -1.18084738 
H       1.79143211      -2.87538600      -2.45409325 
H       2.07901411      -1.10243927      -3.81071089 
H       3.33040414      -1.09502658      -2.87413017 
