24
Properties=species:S:1:pos:R:3 2c24 h20 p=T pbc="F F F" h12=T v,=T c6=T o=T s4=T
V       0.35508378      -0.16527599      -0.13275163 
S      -0.62861043       0.99259216      -1.97113847 
S      -0.03875060      -0.65932837       2.18814734 
S      -1.37524977      -1.79112935      -0.69197745 
S       1.05272466       1.86590793       0.90985916 
O       1.70497568      -0.89789698      -0.64463903 
C       0.40397368       2.37282801      -2.59204527 
H       0.78576815       2.10687179      -3.44296725 
H      -0.17578162       3.13348488      -2.75978880 
C       1.54192833       2.83233809      -1.68242010 
H       2.19176448       2.11645457      -1.60359932 
H       1.98545162       3.59246403      -2.09041457 
C       1.06481047       3.22634794      -0.29123280 
H       0.16753823       3.58557286      -0.36162480 
H       1.63888656       3.93238636       0.04553230 
C      -0.13923315      -2.48137057       2.14608456 
C      -2.31213512      -2.24937076       0.80744717 
C      -1.52769003      -3.02941365       1.85217733 
H       0.47306507      -2.81005806       1.47063293 
H       0.15601811      -2.82819683       3.00303308 
H      -2.64965504      -1.43688129       1.21924033 
H      -3.07922072      -2.77945181       0.54101265 
H      -1.44109393      -3.94663052       1.55130441 
H      -2.03672402      -3.03969787       2.67643257 
