24
Properties=species:S:1:pos:R:3 2c24 h20 p=T pbc="F F F" h12=T v,=T c6=T o=T s4=T
V      -0.39873997       0.02364169      -0.10710347 
S       0.58513453       2.15458892      -0.53022760 
S       0.17023624      -2.16543883       0.71140609 
S      -0.28822400       0.82719496       2.19339110 
S       0.62781177      -0.95000058      -2.03003364 
O      -1.98190897       0.11001859      -0.43434236 
C       0.53416512       2.63622677      -2.29721184 
H      -0.12979822       3.33534548      -2.40187151 
H       1.39568281       3.01739331      -2.53248257 
C       0.21629891       1.52441978      -3.29538747 
H      -0.69125726       1.21612831      -3.14609879 
H       0.26353905       1.88424592      -4.19497479 
C       1.16798057       0.34098516      -3.18551556 
H       2.03584032       0.66654122      -2.90280059 
H       1.27432023      -0.05466358      -4.06507130 
C      -0.91034672      -2.28270634       2.17779369 
C       0.49421872      -0.43238206       3.25981627 
C      -0.30738892      -1.71130321       3.45234676 
H      -1.73874099      -1.81594767       1.99050041 
H      -1.12772065      -3.21634647       2.32907881 
H       1.35719826      -0.66442778       2.87895732 
H       0.65821833      -0.03918985       4.13096358 
H      -1.02331612      -1.53465909       4.08127861 
H       0.27000926      -2.38097073       3.84829477 
