24
Properties=species:S:1:pos:R:3 2c24 h20 p=T pbc="F F F" h12=T v,=T c6=T o=T s4=T
V       0.18193242      -0.02959933       0.37020010 
S       0.25564564       2.26269404      -0.28396857 
S      -0.59947932      -2.16791056      -0.40619290 
S       1.98745914      -0.18387024      -1.26272997 
S      -2.14063817       0.08945655       0.90958841 
O       0.96547369      -0.19197721       1.77756176 
C      -0.66226495       3.36853029       0.85241718 
H      -0.01692314       3.87862949       1.36612982 
H      -1.17006582       3.99957251       0.31690157 
C      -1.62185815       2.69266825       1.83011838 
H      -1.11027396       2.14941164       2.44991094 
H      -2.08252193       3.37478858       2.34340638 
C      -2.65406473       1.81549797       1.13484204 
H      -2.84944453       2.19665970       0.26556791 
H      -3.47391821       1.83009352       1.65358242 
C       0.96934591      -3.09405767      -0.51907642 
C       1.65380542      -1.54075074      -2.43897998 
C       1.69721828      -2.94150277      -1.84628176 
H       1.55653965      -2.79699158       0.19235504 
H       0.78494846      -4.03558871      -0.37299632 
H       0.77611053      -1.39926202      -2.83047079 
H       2.30301210      -1.49161823      -3.15766649 
H       2.62434772      -3.19493699      -1.72173349 
H       1.30929832      -3.55887897      -2.48423380 
