24
Properties=species:S:1:pos:R:3 2c24 h20 p=T pbc="F F F" h12=T v,=T c6=T o=T s4=T
V      -0.22275087      -0.14437755       0.31711326 
S      -0.67088819       2.19060946       0.13006301 
S       1.06698333      -1.88672032      -0.72528430 
S       1.84749046       0.69449142       1.29720845 
S      -1.57341657      -0.66327599      -1.58180611 
O      -1.01368362      -0.72186391       1.60626229 
C      -2.42689735       2.56242914      -0.23734434 
H      -2.83405853       2.92573529       0.56440147 
H      -2.45425190       3.25631343      -0.91604110 
C      -3.28294016       1.39195014      -0.71763372 
H      -3.36185189       0.74343383      -0.00056435 
H      -4.17361050       1.71573378      -0.92459831 
C      -2.70810155       0.70472616      -1.94871905 
H      -2.23693668       1.36415412      -2.47999438 
H      -3.44144983       0.36413171      -2.48505855 
C       2.14641883      -2.39701502       0.65533951 
C       3.28508118      -0.10616584       0.50455821 
C       3.43367104      -1.59552962       0.77841714 
H       1.64994243      -2.31509461       1.48357843 
H       2.37395612      -3.33353482       0.54140980 
H       3.21925009       0.02515098      -0.45567853 
H       4.09098658       0.34255501       0.80382346 
H       3.78551905      -1.71067579       1.67410376 
H       4.08475248      -1.95969561       0.16027950 
