24
Properties=species:S:1:pos:R:3 2c24 h20 p=T pbc="F F F" h12=T v,=T c6=T o=T s4=T
V       0.12134913      -0.38540836       0.08808193 
S      -2.16620416      -0.48842261      -0.57860179 
S       1.90654224       1.19720930       0.39495683 
S      -0.88531942       0.47057856       2.13847011 
S       0.87145874      -0.07491281      -2.15699630 
O       0.60096828      -1.86888566       0.52423661 
C      -2.43465155      -1.49127737      -2.08824563 
H      -2.85811790      -2.32397513      -1.82774875 
H      -3.05826035      -1.01596793      -2.66099862 
C      -1.19197502      -1.82612400      -2.91113142 
H      -0.61320614      -2.40297740      -2.38839279 
H      -1.46061019      -2.31523370      -3.70458632 
C      -0.41118040      -0.58907310      -3.33344903 
H      -1.03345941       0.14404435      -3.45346017 
H       0.00688064      -0.76367436      -4.19147217 
C       2.24030322       1.00684132       2.17935236 
C      -0.06640557       2.02536754       2.63649107 
C       1.38293484       1.88526193       3.07815261 
H       2.09750395       0.08012228       2.42425982 
H       3.17424455       1.21294222       2.34396871 
H      -0.10185031       2.64456542       1.88884804 
H      -0.57184903       2.42010603       3.36388508 
H       1.39779255       1.51815579       3.97499289 
H       1.78037737       2.76792395       3.11771593 
