24
Properties=species:S:1:pos:R:3 2c24 h20 p=T pbc="F F F" h12=T v,=T c6=T o=T s4=T
V      -0.06318493       0.34701777      -0.21589344 
S      -1.49554117       0.41703504       1.68973830 
S       1.59555529      -1.05209727      -1.25359441 
S      -1.76038354      -1.22524956      -0.98899059 
S       1.87086998       0.85752841       1.08727911 
O      -0.35131387       1.65275877      -1.12857766 
C      -1.13540173       1.81851759       2.81354988 
H      -1.84458434       2.47321097       2.71865774 
H      -1.16475709       1.49001653       3.72682875 
C       0.20031542       2.52995672       2.60565005 
H       0.19451259       2.96536286       1.73883014 
H       0.30106527       3.21735586       3.28262548 
C       1.39171558       1.58475747       2.67948323 
H       1.18075573       0.86798998       3.29660183 
H       2.15088464       2.06963866       3.04006183 
C       0.79728948      -1.41266917      -2.85498862 
C      -0.96841167      -2.76186601      -1.57857009 
C      -0.12927954      -2.61922852      -2.83983688 
H       0.28878986      -0.63484702      -3.12994372 
H       1.48858513      -1.56092104      -3.51978500 
H      -0.40165851      -3.10723821      -0.86924552 
H      -1.66032936      -3.42098740      -1.74350191 
H      -0.72540991      -2.56125970      -3.60179382 
H       0.40475382      -3.42035423      -2.94765169 
