24
Properties=species:S:1:pos:R:3 2c24 h20 p=T pbc="F F F" h12=T v,=T c6=T o=T s4=T
V      -0.28705769       0.04873879      -0.29367678 
S       0.52462381      -2.18849734      -0.44835968 
S       0.01194603       2.05779972       0.99474717 
S       1.84710927       0.51905958      -1.37733568 
S      -1.57561946      -0.44126256       1.65541414 
O      -1.35077238       0.29749811      -1.48849904 
C      -0.76948065      -3.44950052      -0.14509274 
H      -0.99207502      -3.86537605      -0.99248121 
H      -0.39312531      -4.13885862       0.42586702 
C      -2.06404763      -2.95354397       0.49649253 
H      -2.51143019      -2.35227674      -0.11939343 
H      -2.65045330      -3.71063010       0.65113026 
C      -1.83108238      -2.23080105       1.81621114 
H      -1.05436545      -2.61714653       2.24811740 
H      -2.59566147      -2.38437262       2.39353162 
C       0.58267267       3.21817198      -0.29347296 
C       2.73267025       1.83507029      -0.47184624 
C       2.08605178       3.21135814      -0.52660390 
H       0.13885364       2.99905741      -1.12665539 
H       0.31160151       4.11608901      -0.04429844 
H       2.81083964       1.56854708       0.45900679 
H       3.63121657       1.90395346      -0.82998481 
H       2.26638529       3.60235878      -1.39488294 
H       2.50473312       3.77597337       0.14012966 
