24
Properties=species:S:1:pos:R:3 2c24 h20 p=T pbc="F F F" h12=T v,=T c6=T o=T s4=T
V       0.39395445      -0.06904881       0.10514656 
S      -0.84057269       0.25181301       2.12033132 
S       0.09032371      -0.12897239      -2.28022193 
S       0.15920073       2.35646481      -0.00422100 
S      -0.48285375      -2.26756839      -0.20657006 
O       1.95794337      -0.25467063       0.47991786 
C      -0.82953617      -1.21636910       3.21629012 
H      -0.25579888      -1.02456556       3.97431707 
H      -1.72880575      -1.34556290       3.55903808 
C      -0.36565586      -2.52933378       2.58823991 
H       0.57127148      -2.45131740       2.34934761 
H      -0.44680849      -3.23947743       3.24404025 
C      -1.16517712      -2.90709633       1.34874464 
H      -2.06971127      -2.57452363       1.45027503 
H      -1.21195760      -3.87461706       1.29235687 
C       1.16053084       1.25369998      -2.80422346 
C      -0.47376398       2.85106056      -1.64456983 
C       0.47734091       2.61303105      -2.80819501 
H       1.92704038       1.29381284      -2.21258712 
H       1.48975579       1.06952169      -3.69837771 
H      -1.29716070       2.36487129      -1.81565541 
H      -0.69484065       3.79487063      -1.61734371 
H       1.15886229       3.30199371      -2.79518609 
H      -0.01741477       2.70782370      -3.63575119 
