24
Properties=species:S:1:pos:R:3 2c24 h20 p=T pbc="F F F" h12=T v,=T c6=T o=T s4=T
V       0.29498449      -0.28702368       0.04031374 
S      -1.55858109      -1.31249426      -1.05544349 
S       0.98649441       1.82809649       0.95346541 
S      -1.15753847      -0.56152255       1.98067821 
S       0.94402698       0.89181496      -1.93162223 
O       1.43390464      -1.40980944       0.29167680 
C      -1.16122123      -1.91068945      -2.74099202 
H      -1.11538596      -2.87911366      -2.71606010 
H      -1.89575698      -1.67051890      -3.32889366 
C       0.13438240      -1.38846410      -3.35921542 
H       0.88640457      -1.72319571      -2.84598415 
H       0.21468391      -1.73251683      -4.26262188 
C       0.19862706       0.13218103      -3.40162231 
H      -0.70074007       0.47745719      -3.50658984 
H       0.70951135       0.39974888      -4.18192292 
C       1.23685451       1.38736157       2.70696943 
C      -1.29219909       1.01653391       2.89041327 
C      -0.01386807       1.48894560       3.56715481 
H       1.57208605       0.47926844       2.75351144 
H       1.91743256       1.97048110       3.07926992 
H      -1.58464405       1.70475548       2.27036531 
H      -1.98104994       0.92407704       3.56667493 
H       0.12051492       0.96562007       4.37175520 
H      -0.12991213       2.41247716       3.83593222 
