24
Properties=species:S:1:pos:R:3 2c24 h20 p=T pbc="F F F" h12=T v,=T c6=T o=T s4=T
V       0.12470049       0.36893679      -0.13913689 
S      -0.39739376       0.61416913       2.17500612 
S       0.16799460      -1.29381659      -1.87670476 
S      -2.30757463       0.38577391      -0.32336802 
S       2.17479038      -0.75904798       0.33439237 
O       0.53272615       1.81813405      -0.73437861 
C       1.04341625       1.10980070       3.19246474 
H       0.92861415       2.03806366       3.44881662 
H       1.03551480       0.58126271       4.00698186 
C       2.41753015       0.96200572       2.54171447 
H       2.48032652       1.57646900       1.79373022 
H       3.10027698       1.20724631       3.18566917 
C       2.68897626      -0.45237371       2.04761412 
H       2.22642037      -1.07689067       2.62650588 
H       3.63983671      -0.63039037       2.12270618 
C      -1.03681780      -0.59737098      -3.05784589 
C      -2.86987445      -1.03661496      -1.32168778 
C      -2.48135146      -0.99400673      -2.79223752 
H      -0.97137663       0.36922710      -3.03365734 
H      -0.79578777      -0.88515776      -3.95277930 
H      -2.50741632      -1.84877730      -0.93098473 
H      -3.83613370      -1.09218960      -1.26128801 
H      -3.06326258      -0.36623726      -3.24676487 
H      -2.63765098      -1.86869950      -3.17837359 
