24
Properties=species:S:1:pos:R:3 2c24 h20 p=T pbc="F F F" h12=T v,=T c6=T o=T s4=T
V      -0.23242174      -0.03020013       0.34072236 
S       1.93685257       0.69672907       1.01437067 
S      -1.47405335      -0.61896026      -1.63348071 
S       0.93289856      -2.16461767       0.14973213 
S      -0.80172772       2.12206360      -0.52130996 
O      -1.14136116      -0.24265585       1.66347028 
C       1.93199346       2.34902544       1.80601411 
H       2.08263805       2.23018791       2.75667271 
H       2.68233502       2.85557098       1.45494127 
C       0.66631156       3.18503932       1.62535316 
H      -0.07016404       2.74462172       2.07770809 
H       0.79678554       4.05052688       2.04352976 
C       0.29856649       3.39299218       0.16254542 
H       1.11319410       3.41247183      -0.36195191 
H      -0.13151141       4.25786706       0.07041081 
C      -1.89253354      -2.35965620      -1.27773398 
C       0.60075722      -2.91569053      -1.48170443 
C      -0.83509619      -3.36353432      -1.71201519 
H      -2.03735008      -2.45500296      -0.32425789 
H      -2.72686056      -2.57555250      -1.72395111 
H       0.83662028      -2.27215161      -2.17007839 
H       1.18279044      -3.68356945      -1.59121658 
H      -0.98007510      -4.19293821      -1.23203551 
H      -0.95335169      -3.54819647      -2.65569606 
