24
Properties=species:S:1:pos:R:3 2c24 h20 p=T pbc="F F F" h12=T v,=T c6=T o=T s4=T
V      -0.03842488      -0.10680931       0.39766687 
S       2.10987195       0.89322056       0.12796302 
S      -2.00683029      -0.66993347      -0.86488476 
S       1.09319620      -1.98048997      -0.67887454 
S      -1.15106745       2.00253088       0.28740060 
O      -0.18433489      -0.61582982       1.92756188 
C       2.32464727       2.42181139       1.11492192 
H       2.91965354       2.22391943       1.85476935 
H       2.76577403       3.08316427       0.55736249 
C       1.05219127       3.04870806       1.68181216 
H       0.66504449       2.44307380       2.33320563 
H       1.28269898       3.87130599       2.14133657 
C       0.01535042       3.35499566       0.60969450 
H       0.47663138       3.56955609      -0.21509562 
H      -0.48694427       4.14031708       0.87883138 
C      -2.03798225      -2.48493203      -0.67379955 
C       0.09863949      -2.58859289      -2.08496179 
C      -1.22401518      -3.24209783      -1.71240571 
H      -1.70228525      -2.70967038       0.20709754 
H      -2.95926276      -2.78616250      -0.72201736 
H      -0.08359385      -1.84144515      -2.67842089 
H       0.62873856      -3.23079227      -2.58192108 
H      -1.04366689      -4.13264695      -1.37520112 
H      -1.75848005      -3.33681506      -2.51489808 
