24
Properties=species:S:1:pos:R:3 2c24 h20 p=T pbc="F F F" h12=T v,=T c6=T o=T s4=T
V       0.27406898       0.30929289      -0.01574001 
S       1.48444585      -1.73358068      -0.23852817 
S      -1.97140500       1.12846071       0.25365932 
S       0.21362275      -0.39603232       2.31857991 
S      -0.54629904       0.19032862      -2.25455488 
O       1.32992781       1.53616396       0.01458895 
C       2.36525462      -1.88108535      -1.83828580 
H       3.31425287      -1.76795610      -1.67344642 
H       2.23505776      -2.78286155      -2.17399615 
C       1.95209647      -0.90028517      -2.93411408 
H       2.18833176      -0.00081600      -2.65818466 
H       2.44795010      -1.10271119      -3.74288891 
C       0.46181695      -0.95080851      -3.24201283 
H       0.14478974      -1.85407878      -3.09137544 
H       0.33173263      -0.74610836      -4.18150220 
C      -1.84440797       1.97432088       1.86614067 
C      -1.49814379      -0.32130396       2.95126032 
C      -2.08791203       1.07633557       3.06983222 
H      -0.96008237       2.36313825       1.94339844 
H      -2.48701836       2.70127161       1.88656249 
H      -2.06621059      -0.84624241       2.36357658 
H      -1.52142790      -0.73919281       3.82602907 
H      -1.71356818       1.50327963       3.85525926 
H      -3.04354402       0.99750160       3.20829075 
