24
Properties=species:S:1:pos:R:3 2c24 h20 p=T pbc="F F F" h12=T v,=T c6=T o=T s4=T
V       0.04770775      -0.35185811      -0.21199879 
S      -2.24432057       0.28436948      -0.38462490 
S       2.11982777       0.38158212       0.76480692 
S      -0.67631020      -1.02256028       2.01872833 
S       0.73913070       1.32231577      -1.76715934 
O       0.24811972      -1.77394184      -0.95931615 
C      -2.77309256       0.62187133      -2.10604841 
H      -3.33846329      -0.10982260      -2.39853406 
H      -3.31775102       1.42573386      -2.10377565 
C      -1.65921836       0.80378196      -3.13546622 
H      -1.18063313      -0.03419661      -3.23414259 
H      -2.05466671       1.02280548      -3.99372792 
C      -0.67233478       1.89799669      -2.75200534 
H      -1.14436738       2.57847723      -2.24878918 
H      -0.33663880       2.31152769      -3.56303227 
C       2.49232951      -1.01205589       1.88316255 
C       0.45261412      -0.33202166       3.27757694 
C       1.86558154      -0.89650097       3.26460355 
H       2.18283471      -1.83225702       1.47004928 
H       3.45514335      -1.07993034       1.98418284 
H       0.50414394       0.62956756       3.14981432 
H       0.06824321      -0.48769298       4.15417209 
H       1.85002197      -1.77578416       3.67194755 
H       2.42912097      -0.33083412       3.81329507 
