24
Properties=species:S:1:pos:R:3 2c24 h20 p=T pbc="F F F" h12=T v,=T c6=T o=T s4=T
V      -0.23175364      -0.19095008       0.28434479 
S       1.89611973      -1.26757472       0.25251026 
S      -1.42891740       1.60868410      -0.77106086 
S      -0.51600534      -1.47942832      -1.76729155 
S       0.62579909       1.70249074       1.45862472 
O      -1.19225141      -0.97292612       1.32690311 
C       2.79341068      -1.14239225       1.84499402 
H       2.77363152      -2.01227418       2.27334216 
H       3.72249554      -0.93467116       1.65392794 
C       2.26909400      -0.10933629       2.84068256 
H       1.38199028      -0.37299147       3.13140903 
H       2.84652599      -0.10004372       3.62007322 
C       2.20407557       1.29526985       2.25660936 
H       2.91496584       1.39319879       1.60534905 
H       2.36629275       1.93510125       2.96778143 
C      -2.80798100       0.70201685      -1.55070300 
C      -1.09749251      -0.39172205      -3.11442973 
C      -2.50301066       0.16480769      -2.94100678 
H      -3.05350491      -0.04059147      -0.97848767 
H      -3.57503178       1.29374168      -1.60829937 
H      -0.47944111       0.35320697      -3.19643985 
H      -1.06484170      -0.88832118      -3.94672585 
H      -3.13975042      -0.53572532      -3.14867515 
H      -2.63418343       0.87797054      -3.58351009 
