24
Properties=species:S:1:pos:R:3 2c24 h20 p=T pbc="F F F" h12=T v,=T c6=T o=T s4=T
V       0.33003371       0.01047493      -0.24898126 
S       1.11564613      -0.39093435       1.96679465 
S      -1.71284180       0.35472654      -1.47123973 
S       0.09627429       2.27513437       0.62672477 
S      -0.46398626      -2.22841180      -0.48639789 
O       1.60711814       0.14451182      -1.23491220 
C       1.97377139      -1.99940458       2.14914263 
H       2.92381652      -1.82749910       2.24096136 
H       1.67283598      -2.41159836       2.97520991 
C       1.77924799      -3.00533333       1.01610412 
H       2.18455512      -2.65313088       0.20822511 
H       2.23734140      -3.82968838       1.24315702 
C       0.31320504      -3.31314352       0.74360039 
H      -0.17843802      -3.24052998       1.57553153 
H       0.24028290      -4.23110512       0.43783381 
C      -1.44525080       2.03406772      -2.13449838 
C      -1.57618802       2.91570241       0.26817776 
C      -1.87957973       3.15607719      -1.20337093 
H      -0.50275198       2.14271948      -2.33216031 
H      -1.93161680       2.11874217      -2.97002269 
H      -2.22797995       2.28606039       0.61796433 
H      -1.69478237       3.75107885       0.74616855 
H      -1.44000929       3.97467028      -1.47903986 
H      -2.83389237       3.28931357      -1.30413553 
