24
Properties=species:S:1:pos:R:3 2c24 h20 p=T pbc="F F F" h12=T v,=T c6=T o=T s4=T
V      -0.24026566       0.00700892       0.33652181 
S       1.26766226       1.84807592       0.49338112 
S      -0.80531305      -1.82413556      -1.11723079 
S       1.76139812      -1.22725715       0.98468554 
S      -1.57446105       1.10379447      -1.31163847 
O      -1.13687907      -0.04425182       1.68352852 
C       0.42354522       3.47407411       0.51344395 
H       0.47678009       3.83224295       1.41313782 
H       0.91409548       4.07748234      -0.06802999 
C      -1.04211125       3.48386725       0.08302154 
H      -1.56370008       2.98003768       0.72729617 
H      -1.36684925       4.39791690       0.08774454 
C      -1.25560081       2.89035954      -1.30278441 
H      -0.46887691       3.06740895      -1.84019865 
H      -2.00568114       3.34142290      -1.72157516 
C      -0.45764329      -3.25141222      -0.03385142 
C       2.02629574      -2.63223342      -0.15192543 
C       0.98338409      -3.73752625      -0.07482042 
H      -0.67706540      -3.00881932       0.87838874 
H      -1.03958976      -3.98450177      -0.29025057 
H       2.04744972      -2.29193176      -1.06152959 
H       2.89641517      -3.01816355       0.03339513 
H       1.15392338      -4.26748079       0.71851098 
H       1.09183888      -4.31849267      -0.84250110 
