24
Properties=species:S:1:pos:R:3 2c24 h20 p=T pbc="F F F" h12=T v,=T c6=T o=T s4=T
V       0.09758184       0.32912569      -0.23060293 
S      -1.37135339       1.07247021       1.49498317 
S       1.17451010      -1.66600230      -1.03400516 
S      -1.99397667      -0.52197242      -1.15320897 
S       1.94302403       0.14762150       1.27300858 
O       0.42823540       1.57998609      -1.20373540 
C      -0.60528895       2.30234984       2.61629828 
H      -0.99197257       3.17061690       2.42353929 
H      -0.84758737       2.07337435       3.52828221 
C       0.91513512       2.43189120       2.54531969 
H       1.16224460       2.77598895       1.67266707 
H       1.20921881       3.07278458       3.21145354 
C       1.63302650       1.10986213       2.78017794 
H       1.10203658       0.57254294       3.38716463 
H       2.48238320       1.29037804       3.21315779 
C       0.45694956      -1.80180213      -2.70683780 
C      -1.80795736      -2.28114364      -1.60788135 
C      -0.86215776      -2.55733796      -2.76739070 
H       0.31932214      -0.90928038      -3.05846703 
H       1.09693916      -2.24858553      -3.28357034 
H      -1.49083543      -2.76792881      -0.82935305 
H      -2.68214345      -2.63456315      -1.83434752 
H      -1.31272039      -2.32765246      -3.59416036 
H      -0.67335202      -3.50725856      -2.79231689 
