24
Properties=species:S:1:pos:R:3 2c24 h20 p=T pbc="F F F" h12=T v,=T c6=T o=T s4=T
V       0.38960939      -0.13442871       0.03401605 
S       0.39519695       1.70371302      -1.48558354 
S      -1.11314890      -1.41807811       1.40504744 
S      -0.53233132      -1.27962456      -1.91245220 
S       0.13665589       1.29596743       1.92859506 
O       1.88883050      -0.73923153       0.12073363 
C       1.40023420       3.12037283      -0.90267590 
H       2.21006837       3.15700284      -1.43502427 
H       0.90292825       3.93628622      -1.07537539 
C       1.79974663       3.10874555       0.57169274 
H       2.39695765       2.36112552       0.73104212 
H       2.28423749       3.92431979       0.77435282 
C       0.60393155       2.99834000       1.50770781 
H      -0.15548894       3.43460615       1.09292182 
H       0.80618689       3.47622489       2.32757558 
C      -0.92611073      -3.07828191       0.66989857 
C      -2.05325112      -2.17814554      -1.44825770 
C      -1.85183988      -3.35517322      -0.50521927 
H      -0.00941812      -3.18480026       0.37408108 
H      -1.09115199      -3.74256830       1.35787205 
H      -2.66571238      -1.55040366      -1.03056910 
H      -2.47804143      -2.50266090      -2.25735385 
H      -1.49366471      -4.09907312      -1.01279552 
H      -2.71584934      -3.62623869      -0.16079334 
