24
Properties=species:S:1:pos:R:3 2c24 h20 p=T pbc="F F F" h12=T v,=T c6=T o=T s4=T
V       0.04976389       0.40586396       0.06181943 
S      -0.11506700       0.05365954      -2.29121308 
S       0.01019998      -0.80802540       2.13803537 
S       2.29008955      -0.47907474      -0.32290294 
S      -2.29463155       0.08696823       0.38051003 
O       0.33346932       1.97673509       0.33171843 
C      -1.55872132       0.89034883      -3.04792930 
H      -1.23610561       1.64920332      -3.55844560 
H      -1.97201566       0.27435311      -3.67449935 
C      -2.63686527       1.38702801      -2.08645975 
H      -2.26554364       2.09137708      -1.53238252 
H      -3.36735881       1.76668024      -2.59949698 
C      -3.18306133       0.28448592      -1.18959961 
H      -3.14762925      -0.55443958      -1.67338016 
H      -4.11497122       0.47400066      -0.99700556 
C       1.67626869      -0.44355946       2.78848399 
C       2.64297857      -1.82590505       0.85926922 
C       2.76073050      -1.39988070       2.31526368 
H       1.92115363       0.45677728       2.52655918 
H       1.64290785      -0.46790270       3.75808029 
H       1.93703191      -2.48946731       0.78886408 
H       3.47189393      -2.25577975       0.59754292 
H       3.62351712      -0.97761018       2.44409319 
H       2.73802974      -2.19261662       2.87174594 
