24
Properties=species:S:1:pos:R:3 2c24 h20 p=T pbc="F F F" h12=T v,=T c6=T o=T s4=T
V      -0.06554482      -0.40781081       0.02044162 
S       1.44328260       0.16503065       1.77636633 
S      -1.30481395       0.59939790      -1.77831016 
S       1.95332238      -0.13387425      -1.32094604 
S      -1.93693615       0.50659045       1.18715196 
O      -0.27348913      -2.01334145       0.01950438 
C       0.77576476      -0.18580661       3.44613858 
H       1.23964719      -0.95975478       3.80164561 
H       0.98645963       0.56762811       4.02128793 
C      -0.72641286      -0.44837280       3.53574683 
H      -0.93220590      -1.26934422       3.06178048 
H      -0.97049850      -0.57343260       4.46620160 
C      -1.56066380       0.68450625       2.95359757 
H      -1.08609248       1.51884358       3.08685788 
H      -2.39572072       0.73924753       3.44466547 
C      -0.58286213      -0.25361001      -3.22152424 
C       1.61822883       0.96702243      -2.73930860 
C       0.66513860       0.40867921      -3.78580464 
H      -0.36308974      -1.16236524      -2.96648798 
H      -1.25307380      -0.29967903      -3.92189306 
H       1.25052875       1.80026625      -2.40147161 
H       2.46040963       1.17631684      -3.17211450 
H       1.14364792      -0.24025267      -4.32360239 
H       0.39365354       1.13026988      -4.37250798 
