24
Properties=species:S:1:pos:R:3 2c24 h20 p=T pbc="F F F" h12=T v,=T c6=T o=T s4=T
V      -0.24132486      -0.15590715       0.29745405 
S       2.01572230      -0.69306852       0.84988046 
S      -1.53127539       0.98077907      -1.38472828 
S       0.09214998      -1.97202119      -1.29650680 
S       0.02994761       2.12403984       0.95144270 
O      -1.21836568      -0.82928262       1.39878373 
C       2.56920376       0.04925100       2.43083783 
H       2.62935828      -0.65701104       3.09276176 
H       3.46431410       0.40307845       2.30263251 
C       1.69354510       1.16329842       3.00147651 
H       0.83092442       0.79295170       3.24584881 
H       2.10746890       1.50910853       3.80773099 
C       1.48306435       2.31034704       2.02256658 
H       2.27128184       2.38993446       1.46446795 
H       1.39402569       3.13535729       2.52545282 
C      -2.55730285      -0.38728408      -2.02298737 
C      -0.42062108      -1.44102989      -2.96717362 
C      -1.91130613      -1.19072863      -3.14178596 
H      -2.76462850      -0.98706010      -1.29055014 
H      -3.39517305      -0.02109566      -2.34810595 
H       0.05671567      -0.62494618      -3.19030912 
H      -0.14708088      -2.11990119      -3.60333644 
H      -2.36181816      -2.04624638      -3.20840774 
H      -2.04982667      -0.72225551      -3.97842391 
