24
Properties=species:S:1:pos:R:3 2c24 h20 p=T pbc="F F F" h12=T v,=T c6=T o=T s4=T
V       0.02883918       0.39406225      -0.12209375 
S       2.23127218      -0.52095403      -0.12573186 
S      -2.24876393      -0.22517206       0.34141273 
S       0.42904305       0.42138407       2.28399794 
S      -0.56707347      -0.75785340      -2.12644568 
O       0.11915738       1.96283152      -0.51167808 
C       3.00694881      -0.53126705      -1.78555884 
H       3.69196188       0.15500631      -1.80437090 
H       3.45029663      -1.38647772      -1.90766705 
C       2.07319109      -0.30463520      -2.97309528 
H       1.71486852       0.59555394      -2.92562536 
H       2.58330765      -0.37829370      -3.79487345 
C       0.91964187      -1.29747695      -3.01641696 
H       1.21959342      -2.13761319      -2.63787340 
H       0.68433734      -1.45982235      -3.94363867 
C      -2.65045521       0.91561758       1.70850705 
C      -0.96898126      -0.36193106       3.16033064 
C      -2.28705456       0.39515139       3.09111333 
H      -2.18534664       1.75282551       1.56039766 
H      -3.60270196       1.10166364       1.68763813 
H      -1.10441982      -1.25009825       2.79094211 
H      -0.72596860      -0.46990412       4.09289714 
H      -2.24399190       1.14562595       3.70286794 
H      -2.99580980      -0.19022088       3.39709270 
