24
Properties=species:S:1:pos:R:3 2c24 h20 p=T pbc="F F F" h12=T v,=T c6=T o=T s4=T
V      -0.00407375       0.40641876      -0.07635995 
S       1.60577301       0.01506600       1.63922030 
S      -1.56391472      -0.77354651      -1.47648259 
S      -1.54349063       0.07300621       1.78622390 
S       1.43823369      -0.45487429      -1.77264169 
O      -0.10650415       2.00104967      -0.33641881 
C       3.30875396       0.48447754       1.15309797 
H       3.54691015       1.29578026       1.62811108 
H       3.91291376      -0.21431391       1.45232102 
C       3.54996004       0.71711175      -0.33727420 
H       3.04015722       1.49155321      -0.62245914 
H       4.48969758       0.91158819      -0.47882314 
C       3.15806239      -0.47922450      -1.19371050 
H       3.30056718      -1.28823465      -0.67961907 
H       3.74479139      -0.51394992      -1.96572576 
C      -3.14287307      -0.02370027      -0.95081641 
C      -2.82344503      -1.14749767       1.33004352 
C      -3.79363003      -0.69940274       0.24688420 
H      -2.98663237       0.90784585      -0.73404430 
H      -3.76284745      -0.05101275      -1.69694530 
H      -2.38144666      -1.95910238       1.03076493 
H      -3.33266885      -1.37093778       2.12449883 
H      -4.43200262      -0.08504987       0.63977243 
H      -4.28697966      -1.47271595      -0.06490239 
