24
Properties=species:S:1:pos:R:3 2c24 h20 p=T pbc="F F F" h12=T v,=T c6=T o=T s4=T
V      -0.01491630       0.26347053      -0.31840921 
S       1.35969172       1.24813769       1.36351307 
S      -1.30078578      -1.72271474      -0.75127531 
S      -1.77811674       0.97822081       1.20816968 
S       1.69232866      -1.27638243      -0.96153883 
O      -0.16441844       1.31089507      -1.54377499 
C       3.08643691       1.52312572       0.81621164 
H       3.21314543       2.47482738       0.67918308 
H       3.67931380       1.25267039       1.53607544 
C       3.51949509       0.79707633      -0.45611738 
H       3.01398178       1.14659466      -1.20663865 
H       4.45817572       0.97882490      -0.61985490 
C       3.31403518      -0.70948783      -0.37650597 
H       3.42638421      -0.98924817       0.54447551 
H       4.00322967      -1.14509386      -0.90255036 
C      -2.97482461      -1.02103644      -0.94348708 
C      -2.91605421      -0.41026707       1.54464148 
C      -3.74885573      -0.87170360       0.35771264 
H      -2.89964270      -0.14976268      -1.36111036 
H      -3.48293808      -1.59052966      -1.54292071 
H      -2.39452090      -1.16402982       1.86632015 
H      -3.51806958      -0.14871385       2.25847691 
H      -4.46714916      -0.23592335       0.21933557 
H      -4.15258793      -1.72471767       0.57676825 
