24
Properties=species:S:1:pos:R:3 2c24 h20 p=T pbc="F F F" h12=T v,=T c6=T o=T s4=T
V      -0.40827113      -0.06558764       0.00604862 
S      -0.00258964       1.79965033      -1.42373773 
S       0.76436716      -1.65351476       1.38052022 
S       0.01221447       1.61429951       1.72400028 
S       0.37208441      -1.62202720      -1.62734947 
O      -2.00714798      -0.29275680       0.11987892 
C      -0.52276188       1.50891579      -3.15627935 
H      -1.32498335       2.02773755      -3.32311049 
H       0.17108677       1.85176117      -3.74269565 
C      -0.80355811       0.05908147      -3.54697381 
H      -1.57465271      -0.25783128      -3.05102182 
H      -1.02242587       0.02288915      -4.49129942 
C       0.37576415      -0.86533045      -3.27688319 
H       1.19600435      -0.36062828      -3.38447856 
H       0.37540187      -1.57162210      -3.94217735 
C       0.06452592      -1.27811314       3.02399205 
C       1.24656013       0.99321428       2.91842796 
C       0.78854531      -0.17423084       3.78015670 
H      -0.86354265      -1.02147573       2.91442266 
H       0.08373473      -2.08607637       3.56125266 
H       2.03937694       0.72099321       2.42754138 
H       1.50388280       1.72318044       3.50266085 
H       0.19982534       0.16506054       4.47124304 
H       1.56306662      -0.55677872       4.21878174 
