24
Properties=species:S:1:pos:R:3 2c24 h20 p=T pbc="F F F" h12=T v,=T c6=T o=T s4=T
V       0.19766543       0.01979810      -0.36271208 
S       1.52151202       1.18846706       1.24029205 
S      -1.85937451      -1.21409481      -0.54120657 
S      -1.12980746       2.06170523      -0.22626472 
S       0.84580145      -2.11042900       0.49839209 
O       0.90267978       0.15473038      -1.81382145 
C       3.17628756       0.44344994       1.49223178 
H       3.83526663       1.02091791       1.07648516 
H       3.36154786       0.43176500       2.44532940 
C       3.37380272      -0.97129018       0.95093113 
H       3.30910630      -0.95093507      -0.01674081 
H       4.26480439      -1.27687400       1.18266028 
C       2.35389519      -1.96125146       1.49687309 
H       2.10638968      -1.68844816       2.39320698 
H       2.77183881      -2.83464170       1.55993618 
C      -2.78161487      -0.18642739      -1.73497212 
C      -2.88732131       1.64876517       0.05057299 
C      -3.58090339       0.94542987      -1.10681436 
H      -2.15337067       0.19216297      -2.36834250 
H      -3.38974204      -0.75737171      -2.23098266 
H      -2.94967440       1.08197531       0.83701675 
H      -3.36898300       2.46773789       0.24468454 
H      -3.77928860       1.60158607      -1.79195123 
H      -4.42474999       0.58952257      -0.79079066 
