24
Properties=species:S:1:pos:R:3 2c24 h20 p=T pbc="F F F" h12=T v,=T c6=T o=T s4=T
V      -0.31546318      -0.07781631      -0.25583442 
S      -0.93822389       1.77758217       1.10712001 
S       1.51443042      -1.59625038      -0.61861906 
S      -0.81831000      -1.29710064       1.79615917 
S       1.15155020       1.25602850      -1.58556295 
O      -1.56591362      -0.46279267      -1.20932130 
C      -1.23927968       3.30972820       0.14863152 
H      -2.19480543       3.47496950       0.13334134 
H      -0.82491864       4.04957721       0.62168685 
C      -0.73108187       3.32065349      -1.29189750 
H      -1.22529260       2.66304252      -1.80599138 
H      -0.90308634       4.19234345      -1.68117235 
C       0.75734087       3.01738134      -1.39635367 
H       1.19788129       3.34970960      -0.59975019 
H       1.11995464       3.49978230      -2.15613319 
C       0.72724838      -3.19443270      -0.22130121 
C       0.56364784      -2.41560723       2.21466732 
C       0.77863660      -3.57351636       1.25117970 
H      -0.20015992      -3.16106993      -0.50055067 
H       1.16354549      -3.89167468      -0.73639437 
H       1.38119515      -1.89247826       2.25447835 
H       0.40840966      -2.77850740       3.10044279 
H       0.10179251      -4.24597250       1.42145886 
H       1.64095041      -3.97401965       1.43727131 
