24
Properties=species:S:1:pos:R:3 2c24 h20 p=T pbc="F F F" h12=T v,=T c6=T o=T s4=T
V       0.26090624       0.07150220      -0.31279228 
S      -1.12585202       1.99792236      -0.08087410 
S       0.62742408      -2.09354020       0.66905364 
S      -1.76381013      -0.82255094      -1.33816025 
S       1.54994321       0.63692587       1.61545251 
O       1.23581387       0.28560865      -1.58742316 
C      -0.19004353       3.51572471       0.34024905 
H      -0.16605552       4.08472555      -0.44475449 
H      -0.68059281       3.99298436       1.02904337 
C       1.24386094       3.31630214       0.82774969 
H       1.77500129       2.94843331       0.10418117 
H       1.62027506       4.17859035       1.06383291 
C       1.33552206       2.39005867       2.03272214 
H       0.52812153       2.48664347       2.55985668 
H       2.08254838       2.67124331       2.58440250 
C       0.26690436      -3.18615534      -0.74795781 
C      -2.17982909      -2.43918712      -0.59692532 
C      -1.19941770      -3.56387204      -0.89552110 
H       0.55670180      -2.74530567      -1.56088370 
H       0.78850441      -3.99906520      -0.65344081 
H      -2.23839585      -2.32961486       0.36650412 
H      -3.05735888      -2.70558352      -0.91215228 
H      -1.35004740      -3.87154369      -1.80214066 
H      -1.38903894      -4.30480892      -0.30081581 
