24
Properties=species:S:1:pos:R:3 2c24 h20 p=T pbc="F F F" h12=T v,=T c6=T o=T s4=T
V      -0.34272070      -0.20287845      -0.11138448 
S       0.94988464      -1.67261053       1.25134740 
S      -0.29997739       2.02614852      -1.01436681 
S       1.34876417      -0.81840845      -1.75764954 
S      -1.05523035       1.08449895       1.76862552 
O      -1.65078665      -0.99947994      -0.63613190 
C       0.09529959      -2.16568250       2.79516431 
H      -0.18153091      -3.09089915       2.70624329 
H       0.73646049      -2.12387316       3.52318742 
C      -1.12724968      -1.33861925       3.18867152 
H      -1.82289923      -1.46815409       2.52513450 
H      -1.46510653      -1.65906843       4.03962917 
C      -0.82250744       0.14854678       3.30596041 
H       0.09559559       0.25461985       3.59738857 
H      -1.39454148       0.52966607       3.99078849 
C      -0.30248588       1.67813501      -2.80617709 
C       2.04299286       0.68233971      -2.53341691 
C       1.07830586       1.46807421      -3.40936349 
H      -0.83495731       0.88455246      -2.96705094 
H      -0.73216215       2.41741224      -3.26516512 
H       2.36840072       1.26901393      -1.83088184 
H       2.80665329       0.42481138      -3.07276421 
H       0.97965985       1.00263607      -4.25372507 
H       1.46828660       2.33467394      -3.59787872 
