24
Properties=species:S:1:pos:R:3 2c24 h20 p=T pbc="F F F" h12=T v,=T c6=T o=T s4=T
V       0.27887246       0.25194893       0.17255588 
S      -0.53264144      -1.19853078       1.88297483 
S       0.01137407       0.70208427      -2.17512129 
S      -1.88483942       1.31543027       0.54342674 
S       1.62087427      -1.46837801      -0.79644080 
O       1.30923240       1.30967878       0.83628497 
C       0.77152887      -2.26164954       2.60804348 
H       0.97174382      -1.93173257       3.49778316 
H       0.41210230      -3.15838076       2.70570943 
C       2.08216629      -2.35573900       1.82901524 
H       2.51153182      -1.48589345       1.82731247 
H       2.67393968      -2.97817348       2.27995140 
C       1.88387567      -2.81532461       0.39104820 
H       1.11990149      -3.41062860       0.35861890 
H       2.66415668      -3.32269572       0.11682119 
C      -0.59630068       2.42278150      -2.13467094 
C      -2.74783298       1.55137976      -1.04892482 
C      -2.10545095       2.55512042      -1.99503904 
H      -0.17491514       2.88296670      -1.39315674 
H      -0.32018643       2.86855378      -2.95129234 
H      -2.80016324       0.69281077      -1.50031520 
H      -3.65591414       1.83902168      -0.86714379 
H      -2.31005178       3.44902773      -1.68138574 
H      -2.50686571       2.45441762      -2.87102032 
