24
Properties=species:S:1:pos:R:3 2c24 h20 p=T pbc="F F F" h12=T v,=T c6=T o=T s4=T
V      -0.39170806      -0.12291463      -0.04980392 
S       0.09537835      -0.20738686       2.28334640 
S       0.63309953       0.44269559      -2.15114154 
S       0.94098288      -2.16595109      -0.03868025 
S      -0.56275104       2.25825917      -0.03552635 
O      -1.89222555      -0.68285926      -0.28619262 
C      -0.94921944       0.91962256       3.28107955 
H      -1.59008413       0.38305133       3.77296540 
H      -0.38124503       1.36206293       3.93261970 
C      -1.71753607       1.99270073       2.51185849 
H      -2.37473293       1.56315028       1.94215010 
H      -2.19368326       2.55441487       3.14330518 
C      -0.81313005       2.86825159       1.65526772 
H       0.05009432       2.94037249       2.08970680 
H      -1.19528113       3.75898274       1.61029084 
C       0.55466043      -1.15981178      -3.02149850 
C       2.23913008      -2.07386606      -1.32022142 
C       1.73734849      -2.07941775      -2.75669854 
H      -0.25825714      -1.61652287      -2.75737830 
H       0.49982655      -0.99215436      -3.97580806 
H       2.75493926      -1.26318363      -1.17750731 
H       2.84127620      -2.82488771      -1.20283260 
H       1.48384989      -2.98499119      -2.99118816 
H       2.46666457      -1.82054070      -3.33953540 
