24
Properties=species:S:1:pos:R:3 2c24 h20 p=T pbc="F F F" h12=T v,=T c6=T o=T s4=T
V      -0.33286202       0.16033383      -0.18579446 
S       0.20416595       1.56781248       1.66314685 
S       0.42573015      -1.83466444      -1.29497666 
S      -1.19750811      -1.25608618       1.60203337 
S       1.48086383       1.00275194      -1.48970339 
O      -1.68575794       0.71351224      -0.88195294 
C       0.64014069       3.27700265       1.16776699 
H      -0.09452137       3.86056887       1.41330728 
H       1.41482018       3.55384950       1.68359689 
C       0.94922690       3.49741487      -0.31189258 
H       0.14440733       3.33851436      -0.82958462 
H       1.21086746       4.42183716      -0.44587571 
C       2.05854057       2.58999875      -0.82600005 
H       2.67740155       2.41588854      -0.10088505 
H       2.54539895       3.05864189      -1.52228080 
C      -1.02606158      -2.92209321      -1.09125322 
C      -0.54712014      -2.95374460       1.42606484 
C      -1.04112716      -3.71690829       0.20589257 
H      -1.82793411      -2.37935905      -1.13149698 
H      -1.05508823      -3.54357187      -1.83606478 
H       0.42256747      -2.90910943       1.38937602 
H      -0.78417533      -3.45792519       2.21979047 
H      -1.94740093      -4.01571739       0.37527725 
H      -0.49055177      -4.50580890       0.09134725 
