24
Properties=species:S:1:pos:R:3 2c24 h20 p=T pbc="F F F" h12=T v,=T c6=T o=T s4=T
V      -0.25393961      -0.20060254       0.25748192 
S       1.58707275      -1.64480134      -0.20397499 
S      -1.08205275       1.99493360      -0.27130446 
S      -0.90589329      -0.90176812      -1.98606663 
S       1.04669160       1.16293405       1.72328361 
O      -1.31072992      -0.99193098       1.19447919 
C       2.56392993      -2.06949334       1.28672718 
H       2.37674398      -2.99226897       1.51913735 
H       3.50593579      -2.01379955       1.05786884 
C       2.32258276      -1.20823779       2.52507232 
H       1.41410688      -1.34842406       2.83492444 
H       2.92429936      -1.49327565       3.23051856 
C       2.53532690       0.27656034       2.26353502 
H       3.21921743       0.37662258       1.58428812 
H       2.86517970       0.69092146       3.07653339 
C      -2.65950260       1.58553240      -1.09334242 
C      -1.30112552       0.55908194      -3.00867218 
C      -2.54342685       1.33084931      -2.58873807 
H      -3.03258621       0.79626116      -0.67258238 
H      -3.28238045       2.31592889      -0.95063061 
H      -0.54123339       1.16384845      -2.98736838 
H      -1.41566431       0.26989627      -3.92717429 
H      -3.32554345       0.83840241      -2.88045685 
H      -2.54737455       2.18353213      -3.04866684 
