24
Properties=species:S:1:pos:R:3 2c24 h20 p=T pbc="F F F" h12=T v,=T c6=T o=T s4=T
V       0.35484248      -0.20811301      -0.04241970 
S       0.10744892       1.18643850      -1.96127396 
S      -0.76198173      -0.77108332       2.01221735 
S      -1.32385729      -1.52498029      -1.22479633 
S       0.96354795       1.63402766       1.34878251 
O       1.69289992      -1.10184461      -0.22079138 
C       1.44092388       2.43199082      -2.12635022 
H       2.01948373       2.16183017      -2.85631573 
H       1.03586764       3.27847417      -2.37584642 
C       2.30952150       2.66486923      -0.89151660 
H       2.81271143       1.85733004      -0.70265341 
H       2.94470537       3.37314882      -1.08084521 
C       1.49791007       3.04449477       0.33952306 
H       0.71317823       3.53605167       0.05375602 
H       2.03125317       3.63720633       0.89242675 
C      -1.07258855      -2.55269932       1.76509057 
C      -2.70949690      -1.92494318      -0.10406170 
C      -2.37053365      -2.87131543       1.03820167 
H      -0.33498041      -2.92901453       1.26160216 
H      -1.08790017      -2.98812698       2.63226461 
H      -3.04877694      -1.09648361       0.27300095 
H      -3.42441702      -2.31940098      -0.62721164 
H      -2.31472196      -3.77240318       0.68573025 
H      -3.09636728      -2.85351649       1.67965844 
