24
Properties=species:S:1:pos:R:3 2c24 h20 p=T pbc="F F F" h12=T v,=T c6=T o=T s4=T
V       0.22915335      -0.24805733       0.23870473 
S      -1.94385289      -0.12175421       1.21342038 
S       1.48113440       0.57392950      -1.64348719 
S       0.41357184       1.97229448       1.23178809 
S      -0.52002117      -1.70141216      -1.50081976 
O       1.17641670      -1.14297556       1.19932112 
C      -2.80102155      -1.73963674       1.28068283 
H      -2.81016848      -2.03979966       2.20284685 
H      -3.72398690      -1.60515041       1.01068029 
C      -2.21124744      -2.85699875       0.42209278 
H      -1.33055042      -3.08332148       0.75993849 
H      -2.77114743      -3.64520685       0.50085725 
C      -2.09736521      -2.47615675      -1.04769548 
H      -2.81689323      -1.86482594      -1.26598225 
H      -2.21647479      -3.27489375      -1.58555835 
C       2.80257708       1.51117160      -0.80261249 
C       1.01338967       3.16709477      -0.01267339 
C       2.44519163       2.95475744      -0.48186216 
H       3.02749739       1.05673844       0.02326937 
H       3.59332135       1.50515937      -1.36520459 
H       0.42682605       3.12602270      -0.78590599 
H       0.94155148       4.06012958       0.35843538 
H       3.04624471       3.27670168       0.20690288 
H       2.59375779       3.49311917      -1.27351411 
