24
Properties=species:S:1:pos:R:3 2c24 h20 p=T pbc="F F F" h12=T v,=T c6=T o=T s4=T
V       0.32306307       0.11980517      -0.22869328 
S      -0.45219201      -1.95475272      -1.11366123 
S      -0.16385451       1.70367343       1.51487717 
S       1.24075581      -1.36033148       1.47929455 
S      -1.50113031       1.32926320      -1.18209663 
O       1.64353558       0.57169456      -1.04913137 
C      -1.04037628      -1.82769098      -2.84418162 
H      -0.38471201      -2.25200164      -3.41918836 
H      -1.86501571      -2.33440661      -2.92204091 
C      -1.29577401      -0.41748937      -3.37296484 
H      -0.45354558       0.06217405      -3.41250246 
H      -1.64633262      -0.47698001      -4.27547985 
C      -2.27578755       0.36838213      -2.51257727 
H      -2.90870218      -0.25118660      -2.11932329 
H      -2.77352310       0.97460550      -3.08373127 
C       1.38235225       1.64484044       2.48311637 
C       0.78275971      -0.75808468       3.14168798 
C       1.41555032       0.56329523       3.55255690 
H       2.12352107       1.50242126       1.87519776 
H       1.51437730       2.50660718       2.90943782 
H      -0.18312567      -0.66131425       3.17820312 
H       1.03122721      -1.43258811       3.79261243 
H       2.33855259       0.39971031       3.79876203 
H       0.95774050       0.89323227       4.34006549 
