24
Properties=species:S:1:pos:R:3 2c24 h20 p=T pbc="F F F" h12=T v,=T c6=T o=T s4=T
V       0.37936274       0.03791022      -0.16021976 
S       0.09024175       1.79800418       1.42295978 
S      -0.79203485      -1.84449697      -1.09303067 
S      -1.04801896       1.49164240      -1.50164852 
S       0.66991560      -1.59855889       1.55354687 
O       1.82422632       0.21157182      -0.86957244 
C       1.27151113       1.71398944       2.82094060 
H       1.92449234       2.42228053       2.70910503 
H       0.78426431       1.89604615       3.64087893 
C       2.02385699       0.39612649       2.99621530 
H       2.60753862       0.26193601       2.23313102 
H       2.57983090       0.45257011       3.78910304 
C       1.09436283      -0.80257447       3.12829076 
H       0.27620388      -0.51409871       3.56013879 
H       1.51534192      -1.45992707       3.70459670 
C      -0.86868580      -1.37139619      -2.85428138 
C      -2.44489905       0.53657744      -2.18910069 
C      -2.06887612      -0.51295854      -3.22465036 
H      -0.06000834      -0.88775025      -3.08079154 
H      -0.88745290      -2.17911899      -3.39191899 
H      -2.90538594       0.09503644      -1.45655321 
H      -3.07159819       1.15605867      -2.59392756 
H      -1.88201287      -0.06515329      -4.06361565 
H      -2.83155397      -1.09312481      -3.36729557 
