24
Properties=species:S:1:pos:R:3 2c24 h20 p=T pbc="F F F" h12=T v,=T c6=T o=T s4=T
V       0.40849142       0.04236534      -0.04861665 
S      -0.47432163       2.18779226       0.50434229 
S      -0.29358571      -2.23198606      -0.39528464 
S      -0.57081646       0.59257326      -2.21389128 
S       0.20263736      -0.73844708       2.19802623 
O       1.99538758       0.19262462      -0.33172983 
C       0.18444678       2.85687605       2.07760555 
H       0.80088351       3.57536299       1.86701068 
H      -0.55385408       3.24503600       2.57469375 
C       0.90354631       1.86452091       2.98954600 
H       1.71166144       1.55887084       2.54850527 
H       1.16435840       2.31774185       3.80657211 
C       0.04469955       0.65870249       3.34545541 
H      -0.88353101       0.93595447       3.37024279 
H       0.28579716       0.35768808       4.23580737 
C       0.18892754      -2.48568674      -2.13727221 
C      -1.61347882      -0.78830985      -2.79872511 
C      -0.86495658      -2.06542905      -3.15080906 
H       1.00134478      -1.98628035      -2.30975692 
H       0.38914405      -3.42597504      -2.26991378 
H      -2.26601569      -0.99415017      -2.10919060 
H      -2.10301606      -0.49384401      -3.58233009 
H      -0.43580178      -1.94397038      -4.01126482 
H      -1.50772915      -2.78425184      -3.24437879 
