24
Properties=species:S:1:pos:R:3 2c24 h20 p=T pbc="F F F" h12=T v,=T c6=T o=T s4=T
V      -0.40553178       0.00145512       0.08102779 
S       0.15181282       2.13455914      -0.82848494 
S       0.60465247      -2.10493625       0.65409714 
S       0.66142863       0.96110794       2.05355126 
S      -0.27759038      -1.05987491      -2.05360514 
O      -1.97177702       0.00633914       0.49068903 
C      -0.70703573       2.49432065      -2.40638134 
H      -1.39149219       3.15948850      -2.23422149 
H      -0.06497349       2.89083714      -3.01743268 
C      -1.36298768       1.30693124      -3.10876419 
H      -2.08892956       0.97558205      -2.55721631 
H      -1.74204908       1.60711090      -3.94969728 
C      -0.38821651       0.17000270      -3.38354044 
H       0.49249876       0.54606137      -3.53191680 
H      -0.65765998      -0.27950246      -4.20012459 
C       0.29531027      -2.16394333       2.45202076 
C       1.91340994      -0.19390170       2.71272429 
C       1.36290361      -1.48614309       3.29782008 
H      -0.55806957      -1.74214975       2.63371422 
H       0.22711808      -3.09281407       2.72473211 
H       2.53116098      -0.41849743       1.99748107 
H       2.42104572       0.26271326       3.40134777 
H       0.99006264      -1.29463585       4.17167634 
H       2.09711302      -2.10564628       3.42340035 
