24
Properties=species:S:1:pos:R:3 2c24 h20 p=T pbc="F F F" h12=T v,=T c6=T o=T s4=T
V      -0.25644911       0.04291850      -0.32158280 
S       0.37810349      -2.25343838      -0.21173185 
S       0.09820205       2.13366372       0.81365828 
S       1.99247746       0.25114666      -1.24308005 
S      -1.73974883      -0.16868435       1.53704422 
O      -1.19219417       0.25986078      -1.62476643 
C      -1.03640430      -3.38110662       0.07867865 
H      -1.22076174      -3.85512189      -0.74708753 
H      -0.76732263      -4.04139878       0.73781619 
C      -2.33484995      -2.73309395       0.55578108 
H      -2.67796628      -2.15908686      -0.14691088 
H      -2.99256620      -3.42687969       0.72020286 
C      -2.15445785      -1.91183664       1.82514408 
H      -1.45115824      -2.31390189       2.35694126 
H      -2.97475951      -1.95428062       2.34164001 
C       0.86855536       3.12515033      -0.51118657 
C       2.90455538       1.57477678      -0.37582534 
C       2.38048067       2.98469428      -0.60552177 
H       0.47953961       2.86434515      -1.35961269 
H       0.65252381       4.05986163      -0.36466807 
H       2.88223361       1.38962426       0.57751234 
H       3.83255297       1.54321259      -0.65549975 
H       2.66453510       3.27987478      -1.48386779 
H       2.78696237       3.57519347       0.04616942 
