24
Properties=species:S:1:pos:R:3 2c24 h20 p=T pbc="F F F" h12=T v,=T c6=T o=T s4=T
V      -0.27283514       0.30781154       0.04285660 
S       0.81488943       0.01562399       2.14510798 
S      -0.28549746      -0.58228054      -2.19172190 
S      -1.43835775      -1.70826865       0.76891760 
S       1.62924093       1.39095918      -0.91021528 
O      -1.41035220       1.44866669       0.20246483 
C       1.75590130       1.49259185       2.68350263 
H       1.27141385       1.91201554       3.41146115 
H       2.61000298       1.19552124       3.03721490 
C       2.02447167       2.55281432       1.61705688 
H       1.18064111       2.94337836       1.34065383 
H       2.56638131       3.25890646       2.00271432 
C       2.73818080       1.99380681       0.39377555 
H       3.31062426       1.26438877       0.67547196 
H       3.30624595       2.68699477       0.02194657 
C      -1.99787409      -1.20282402      -2.31170461 
C      -1.39518468      -2.96724927      -0.55362443 
C      -2.19005752      -2.62438904      -1.80498615 
H      -2.57748850      -0.61277069      -1.80666631 
H      -2.27749127      -1.16415323      -3.24022027 
H      -0.46923850      -3.11433226      -0.80783440 
H      -1.73331072      -3.80228223      -0.19475908 
H      -3.13131342      -2.76233923      -1.61973695 
H      -1.93811908      -3.24019803      -2.50920512 
