24
Properties=species:S:1:pos:R:3 2c24 h20 p=T pbc="F F F" h12=T v,=T c6=T o=T s4=T
V       0.29059443      -0.26657098       0.12457301 
S       1.36969179       1.81210048      -0.32559696 
S      -1.88979216      -1.28193129       0.09768342 
S       0.29082164      -0.38652632      -2.31177621 
S      -0.63176704       0.53554270       2.17525854 
O       1.41611655      -1.35709418       0.53068807 
C       2.17014368       2.54549288       1.15028195 
H       3.13036724       2.44977986       1.05344357 
H       1.97343139       3.49630648       1.16080593 
C       1.76732431       1.96045540       2.50267833 
H       2.06706589       1.03909287       2.54995429 
H       2.21500839       2.45492812       3.20697907 
C       0.26465625       2.00760061       2.74362092 
H      -0.09735559       2.78461676       2.29163821 
H       0.10596907       2.11962975       3.69426923 
C      -1.64405065      -2.60641297      -1.13400776 
C      -1.38463287      -0.78629789      -2.91926976 
C      -1.88668222      -2.18064879      -2.57428550 
H      -0.73615314      -2.93656471      -1.05718698 
H      -2.24194560      -3.34112198      -0.92294660 
H      -2.00716566      -0.13598258      -2.55433776 
H      -1.39408081      -0.68691188      -3.88385608 
H      -1.45445420      -2.81821586      -3.16250088 
H      -2.83835901      -2.21883782      -2.75168604 
