24
Properties=species:S:1:pos:R:3 2c24 h20 p=T pbc="F F F" h12=T v,=T c6=T o=T s4=T
V       0.04055512       0.25673073      -0.32166482 
S       1.92829039      -1.20080985      -0.32485229 
S      -1.97659988       0.69552129       0.91296623 
S       1.28890567       1.28796893       1.50271331 
S      -1.40838542      -1.44572761      -1.15931338 
O       0.21462610       1.33219258      -1.51918369 
C       2.03537547      -2.24154146      -1.82891901 
H       2.76022158      -1.90586772      -2.37890918 
H       2.27153641      -3.14338677      -1.55733838 
C       0.77800307      -2.31786293      -2.69303586 
H       0.59950800      -1.44153188      -3.06876494 
H       0.93676042      -2.92974907      -3.42880435 
C      -0.44576450      -2.78483633      -1.91675233 
H      -0.15685683      -3.39190536      -1.21883070 
H      -1.02392077      -3.28099427      -2.51760754 
C      -1.67861129       2.40679373       1.47372751 
C       0.20643360       1.50575957       2.95764802 
C      -0.91820530       2.51635438       2.78686283 
H      -1.18062793       2.87566487       0.78717678 
H      -2.53408533       2.85425671       1.57253833 
H      -0.18450000       0.64511151       3.18145211 
H       0.75348725       1.77996885       3.70993465 
H      -0.54437193       3.40796733       2.85457657 
H      -1.54530647       2.40681719       3.51718042 
