24
Properties=species:S:1:pos:R:3 2c24 h20 p=T pbc="F F F" h12=T v,=T c6=T o=T s4=T
V      -0.33915169      -0.15471369      -0.17906269 
S       1.52253457      -1.43510610      -0.94240974 
S      -0.86606595       1.69287751       1.26818760 
S       0.56890513       1.45355041      -1.77252002 
S      -0.32125641      -1.20938081       1.96262011 
O      -1.67276436      -0.68070953      -0.93124349 
C       1.42719355      -3.20242697      -0.46881366 
H       1.21965522      -3.71844927      -1.26330517 
H       2.30531653      -3.48209926      -0.16297642 
C       0.40923608      -3.56206837       0.61189393 
H      -0.48409295      -3.39806307       0.27122628 
H       0.48168249      -4.50846846       0.81199949 
C       0.60509033      -2.76857257       1.89653117 
H       1.54866810      -2.57302540       1.99908522 
H       0.33585159      -3.32141500       2.64709104 
C      -1.57736553       2.87893385       0.07695838 
C       0.74835665       3.08865918      -0.97864975 
C      -0.55588017       3.77723678      -0.60433795 
H      -2.05781200       2.38406971      -0.60382071 
H      -2.22041326       3.43764003       0.54188799 
H       1.28241971       2.98276936      -0.17416454 
H       1.24066991       3.66980890      -1.57888826 
H      -0.95332749       4.14306888      -1.40901968 
H      -0.35510828       4.51940006      -0.01484464 
