24
Properties=species:S:1:pos:R:3 2c24 h20 p=T pbc="F F F" h12=T v,=T c6=T o=T s4=T
V       0.33450428       0.00745873       0.24305328 
S       0.96189771       0.92093952      -1.86879650 
S      -1.57176656      -0.90999183       1.38768478 
S       0.48390465      -2.07675942      -1.01547805 
S      -0.84158587       1.98835058       0.86941388 
O       1.64646696      -0.05805181       1.18932630 
C       1.50981933       2.66630310      -1.76733685 
H       2.47176063       2.68963667      -1.88854912 
H       1.11264490       3.15226804      -2.50824409 
C       1.17453666       3.40948090      -0.47552396 
H       1.66291667       3.00382041       0.25790189 
H       1.46895914       4.33032358      -0.55507278 
C      -0.31323722       3.39214768      -0.15223498 
H      -0.81076344       3.37494458      -0.98365952 
H      -0.54024872       4.21473234       0.30959248 
C      -0.98446838      -2.60057452       1.74645323 
C      -1.03315472      -3.06465162      -0.77337593 
C      -1.23988123      -3.60596970       0.63357858 
H      -0.03184951      -2.56718766       1.92133057 
H      -1.41997178      -2.91528766       2.55460850 
H      -1.79880931      -2.51436588      -1.00702331 
H      -1.01494395      -3.81273949      -1.39016318 
H      -0.65125650      -4.36525301       0.76132821 
H      -2.15076173      -3.92698069       0.71017311 
