24
Properties=species:S:1:pos:R:3 2c24 h20 p=T pbc="F F F" h12=T v,=T c6=T o=T s4=T
V       0.12442734      -0.11852546      -0.37615581 
S      -1.33847011      -1.80622096       0.46026160 
S       1.07606577       2.00164388       0.24435333 
S       1.66467700      -1.17996319       1.18946477 
S      -1.68479347       1.36805528      -0.84117836 
O       0.69826702      -0.59604379      -1.81269840 
C      -2.84644604      -2.02473921      -0.55711964 
H      -2.76488434      -2.85904307      -1.04482107 
H      -3.60594791      -2.11222100       0.04150948 
C      -3.15566424      -0.91504560      -1.56035066 
H      -2.45974256      -0.89730641      -2.23590027 
H      -3.99500416      -1.11466896      -2.00377241 
C      -3.25380312       0.45873118      -0.91120241 
H      -3.59046479       0.35165187      -0.00882334 
H      -3.89850071       0.99002611      -1.40471539 
C       2.85685950       1.60108234       0.23906869 
C       2.43798255       0.08185283       2.25990038 
C       3.38160372       1.04455253       1.55415928 
H       3.02677278       0.95327592      -0.46139959 
H       3.35502728       2.40511156       0.02183977 
H       1.73331446       0.59782985       2.68515681 
H       2.93028320      -0.37036830       2.96241709 
H       4.21880597       0.58674419       1.38441212 
H       3.56969937       1.78499836       2.14995963 
