24
Properties=species:S:1:pos:R:3 2c24 h20 p=T pbc="F F F" h12=T v,=T c6=T o=T s4=T
V      -0.20117192      -0.12129448      -0.34035445 
S      -1.82677151       0.21544935       1.37195648 
S       2.16999674       0.02403315      -0.71745443 
S       0.20621115      -2.15617962       0.94162385 
S       0.08259778       2.22481598      -0.67901163 
O      -0.94958616      -0.68189582      -1.66193403 
C      -3.03806603       1.53004921       0.97021153 
H      -3.88608730       1.10777387       0.76257874 
H      -3.17137136       2.07243719       1.76450238 
C      -2.67330153       2.45949613      -0.18589554 
H      -2.65443901       1.94684808      -1.00919689 
H      -3.36039458       3.13847962      -0.27448674 
C      -1.32572267       3.14171610       0.00618372 
H      -1.17766969       3.27364136       0.95474636 
H      -1.35856704       4.01708754      -0.41108173 
C       2.56578774      -1.70942290      -1.12998730 
C       1.99085658      -2.33090421       1.28879174 
C       2.86821599      -2.59031995       0.07296853 
H       1.81793375      -2.09145010      -1.61367016 
H       3.33414846      -1.71956657      -1.72272792 
H       2.30017799      -1.51942601       1.72405698 
H       2.11237941      -3.06050697       1.91593257 
H       2.76563393      -3.51777607      -0.18897085 
H       3.79403563      -2.45964121       0.32673834 
