24
Properties=species:S:1:pos:R:3 2c24 h20 p=T pbc="F F F" h12=T v,=T c6=T o=T s4=T
V      -0.09373184       0.11120618       0.38713198 
S       0.30615198       2.10714055      -0.85557396 
S      -0.13625515      -2.27857745       0.11714805 
S       2.34168232      -0.00135183       0.30791422 
S      -2.23267181      -0.21439707      -0.62200950 
O      -0.37755595       0.51005447       1.93028922 
C      -1.15891066       3.20288363      -0.95428965 
H      -1.00315366       3.96971424      -0.38133371 
H      -1.23071948       3.53168005      -1.86510762 
C      -2.49907899       2.58184399      -0.56471698 
H      -2.48064251       2.35746351       0.37884141 
H      -3.20214497       3.23618924      -0.70071094 
C      -2.82653553       1.33008315      -1.36730925 
H      -2.43736253       1.41768982      -2.25046523 
H      -3.78920840       1.27281131      -1.47429168 
C       1.17557236      -2.78574780       1.28058718 
C       2.87398735      -1.65119435      -0.26713757 
C       2.57537155      -2.80003344       0.68484955 
H       1.16762162      -2.18233720       2.03888258 
H       0.97023129      -3.67474294       1.61126106 
H       2.44068813      -1.83506052      -1.11688898 
H       3.82990737      -1.62722154      -0.42849378 
H       3.21988085      -2.77638089       1.40828475 
H       2.70058838      -3.63511535       0.20990006 
