24
Properties=species:S:1:pos:R:3 2c24 h20 p=T pbc="F F F" h12=T v,=T c6=T o=T s4=T
V       0.19369071       0.17233793      -0.32219124 
S       1.77406703      -0.00152186       1.45549338 
S      -2.10251827      -0.32901597      -0.83388831 
S      -0.59786068       2.03428799       1.04044417 
S       0.31267825      -2.16413932      -0.79775850 
O       0.89888067       0.92455178      -1.57033056 
C       3.20071609      -1.07780516       1.05164572 
H       3.97675396      -0.51303943       0.91245944 
H       3.38514608      -1.63863211       1.82256186 
C       3.04496454      -1.98234710      -0.16944133 
H       2.97948299      -1.43068457      -0.96465801 
H       3.83706827      -2.53553763      -0.25613477 
C       1.81978147      -2.88251669      -0.08632414 
H       1.65291868      -3.09347167       0.84466987 
H       2.01393266      -3.71446540      -0.54635785 
C      -2.75742784       1.34002382      -1.17609208 
C      -2.40080645       1.89878655       1.29936390 
C      -3.25338094       2.08672795       0.05313885 
H      -2.06115686       1.86569366      -1.59806058 
H      -3.48976369       1.26232639      -1.80812834 
H      -2.59252504       1.02340432       1.67430707 
H      -2.66793390       2.56022634       1.95627632 
H      -3.29213597       3.03270349      -0.15407722 
H      -4.15582118       1.79395348       0.24936011 
