24
Properties=species:S:1:pos:R:3 2c24 h20 p=T pbc="F F F" h12=T v,=T c6=T o=T s4=T
V      -0.09942374      -0.29507238      -0.27215961 
S       2.26480892       0.00315604      -0.36933419 
S      -2.04025170       0.53971394       0.87765948 
S      -0.05560075       1.78486710      -1.54578364 
S       0.02877077      -1.47931856       1.79679553 
O      -0.53051368      -1.38344830      -1.39044833 
C       3.20274157      -1.49796840       0.10364993 
H       3.59033977      -1.87893380      -0.69959407 
H       3.93654024      -1.22803822       0.67943652 
C       2.41465975      -2.59426133       0.81819671 
H       1.75295905      -2.95610692       0.20810746 
H       3.02017500      -3.31257884       1.05972328 
C       1.71308779      -2.09553966       2.07412696 
H       2.24330207      -1.38383462       2.46328478 
H       1.67606618      -2.82062909       2.71781872 
C      -3.00200524       1.22770333      -0.51280969 
C      -1.17922109       3.00815882      -0.78614672 
C      -2.66028297       2.66802072      -0.86388932 
H      -2.85492375       0.67479078      -1.29500803 
H      -3.94569750       1.17792038      -0.29192714 
H      -0.93555354       3.11038506       0.14863045 
H      -1.03831595       3.86506158      -1.21772174 
H      -2.97142782       2.84944073      -1.76365920 
H      -3.14388907       3.25538216      -0.26409791 
