24
Properties=species:S:1:pos:R:3 2c24 h20 p=T pbc="F F F" h12=T v,=T c6=T o=T s4=T
V       0.35247470       0.04931714       0.21060163 
S      -1.42830462       0.80453057       1.60575640 
S       0.74639019      -0.89238753      -1.96742230 
S      -0.06735619       2.19177383      -0.87742788 
S      -0.18986660      -2.24595339       0.58080061 
O       1.75563563       0.31151149       0.97438424 
C      -1.59193615      -0.16021482       3.15472292 
H      -1.27789851       0.38986962       3.88913112 
H      -2.53533515      -0.33369972       3.30556819 
C      -0.84795722      -1.49338139       3.20639985 
H       0.10664155      -1.32352818       3.17673465 
H      -1.04536018      -1.93311242       4.04820299 
C      -1.22318054      -2.42490180       2.06195042 
H      -2.14623929      -2.25938672       1.81769163 
H      -1.16127207      -3.34138426       2.37450696 
C       1.78714347       0.40151477      -2.72528325 
C      -0.25132940       1.95385512      -2.67897224 
C       1.00921497       1.51543555      -3.40979252 
H       2.34660695       0.79191908      -2.03697767 
H       2.37267108      -0.01420901      -3.37808772 
H      -0.94287914       1.28907954      -2.83215457 
H      -0.55831356       2.78665830      -3.06960401 
H       1.59135227       2.28398306      -3.50859072 
H       0.76349019       1.21949014      -4.29897962 
