24
Properties=species:S:1:pos:R:3 2c24 h20 p=T pbc="F F F" h12=T v,=T c6=T o=T s4=T
V       0.35038465      -0.01840144       0.21889638 
S       0.20301381      -2.02058018      -1.06855897 
S      -0.84759466       2.02549512       0.63494655 
S      -1.32315081      -1.18086198       1.55984807 
S       0.96200456       1.28608196      -1.68470346 
O       1.66933895      -0.09998409       1.15413655 
C       1.57379872      -2.21036713      -2.26928203 
H       2.16853658      -2.90364381      -1.94336448 
H       1.19975315      -2.52115731      -3.10972974 
C       2.40743298      -0.96177212      -2.55136832 
H       2.88254262      -0.71033753      -1.74387812 
H       3.06706390      -1.16914856      -3.23169610 
C       1.56637368       0.21730941      -3.02112711 
H       0.80474487      -0.12251698      -3.51461941 
H       2.09691198       0.75361095      -3.63135175 
C      -1.19718446       1.86932975       2.41963228 
C      -2.75483621      -0.08724706       1.86034243 
C      -2.47867321       1.11775792       2.74746086 
H      -0.45376619       1.41348714       2.84238076 
H      -1.25240959       2.75877025       2.80390862 
H      -3.08413180       0.23041638       1.00343708 
H      -3.46249537      -0.61130644       2.26651221 
H      -2.43532820       0.81906534       3.66844627 
H      -3.22436536       1.73199915       2.67487311 
