24
Properties=species:S:1:pos:R:3 2c24 h20 p=T pbc="F F F" h12=T v,=T c6=T o=T s4=T
V       0.34543084       0.22728047      -0.00669073 
S       0.60699696      -1.52239578      -1.60612669 
S      -1.24469397       1.07922850       1.58436331 
S       0.79465996      -1.60431932       1.54044284 
S      -1.13898728       1.44551272      -1.42509167 
O       1.71815862       1.08341746       0.05346098 
C       0.81037407      -0.90978186      -3.32081271 
H       1.73601799      -1.03736625      -3.58056931 
H       0.26655843      -1.46142844      -3.90630700 
C       0.44380005       0.55248009      -3.56763601 
H       1.06047595       1.11942280      -3.07847781 
H       0.54539371       0.74874048      -4.51215940 
C      -0.98034025       0.88492328      -3.14385157 
H      -1.53151583       0.09712603      -3.26499619 
H      -1.32474351       1.57789460      -3.72920744 
C      -0.31146092       0.89928750       3.14269610 
C      -0.47544492      -1.64161078       2.85248571 
C      -0.45635637      -0.45983577       3.81077875 
H       0.62742540       1.05714288       2.96171645 
H      -0.60934285       1.58324571       3.76341347 
H      -1.35028416      -1.68303141       2.43227971 
H      -0.36236931      -2.45565475       3.36720886 
H       0.27753582      -0.57891808       4.43249560 
H      -1.27769303      -0.46563695       4.32457882 
