24
Properties=species:S:1:pos:R:3 2c24 h20 p=T pbc="F F F" h12=T v,=T c6=T o=T s4=T
V      -0.25530508      -0.11810287      -0.30314134 
S       0.85213342       1.86512828      -1.03002052 
S      -0.35448817      -1.61936166       1.57359787 
S      -1.51333116       1.49761806       1.02237862 
S       1.68457850      -1.46125398      -0.66679638 
O      -1.32763846      -0.55656006      -1.43399356 
C       1.87958190       1.61240006      -2.52577595 
H       1.43092191       2.03200622      -3.27624434 
H       2.72278150       2.07617805      -2.39624841 
C       2.18530852       0.16405632      -2.90305557 
H       1.35868829      -0.27870290      -3.15135417 
H       2.77065036       0.15570152      -3.67653406 
C       2.84671401      -0.61432486      -1.77391747 
H       3.38446662      -0.00226971      -1.24922168 
H       3.44417563      -1.27417873      -2.16004807 
C      -2.09925174      -1.43541836       2.07725322 
C      -1.56033533       0.97199169       2.77095549 
C      -2.35773878      -0.29375318       3.04901979 
H      -2.63774333      -1.29499664       1.28385040 
H      -2.39269133      -2.26442136       2.48770390 
H      -0.64811845       0.83411823       3.07506681 
H      -1.93598000       1.69331542       3.29913802 
H      -3.30159290      -0.07491120       3.02540280 
H      -2.15127766      -0.59811181       3.94532202 
