24
Properties=species:S:1:pos:R:3 2c24 h20 p=T pbc="F F F" h12=T v,=T c6=T o=T s4=T
V      -0.04881297       0.17718928      -0.37046578 
S       1.80113799       1.24044097       0.69497143 
S      -1.67353780      -1.55674867       0.00302283 
S      -1.29441526       1.57365002       1.19432149 
S       1.22486616      -1.78085058      -0.86368941 
O      -0.32047907       0.90930038      -1.78862699 
C       3.37858079       1.02590791      -0.21192216 
H       3.60728799       1.87214639      -0.62682139 
H       4.07442151       0.82262615       0.43409270 
C       3.39994145      -0.05476769      -1.29136286 
H       2.79267923       0.19885690      -2.00403117 
H       4.29266195      -0.10874272      -1.66699654 
C       3.00186761      -1.42624249      -0.76327064 
H       3.27961239      -1.49427665       0.16264742 
H       3.48221691      -2.10363793      -1.26513151 
C      -3.22736933      -0.60154901      -0.06701262 
C      -2.51451961       0.56207787       2.10211040 
C      -3.65403483       0.00614264       1.26084754 
H      -3.12395421       0.11145835      -0.71516793 
H      -3.93590404      -1.18453125      -0.38313412 
H      -2.04829204      -0.18141804       2.51861745 
H      -2.89332264       1.10157831       2.81333550 
H      -4.28497814       0.72067092       1.08571880 
H      -4.11642667      -0.67136511       1.77640072 
