24
Properties=species:S:1:pos:R:3 2c24 h20 p=T pbc="F F F" h12=T v,=T c6=T o=T s4=T
V       0.13043871      -0.19559788      -0.34022177 
S      -2.12019362      -0.87577630       0.05976645 
S       1.83808113       1.23339615       0.56955773 
S       0.54737697      -1.73707692       1.50373911 
S      -0.54957194       1.93977350      -1.16315725 
O       0.69913553      -1.01237396      -1.61710513 
C      -3.26589002      -0.41516608      -1.29375643 
H      -3.50017239      -1.22089573      -1.78004793 
H      -4.08145638      -0.06939476      -0.89607982 
C      -2.75160171       0.61455445      -2.29809275 
H      -2.00661254       0.23275307      -2.78820272 
H      -3.45545752       0.81360827      -2.93521787 
C      -2.30087373       1.91057038      -1.63818796 
H      -2.83930808       2.05851950      -0.84616867 
H      -2.46874500       2.64506312      -2.24958308 
C       3.13670777       0.01519649       0.97113239 
C       1.57988621      -0.92826786       2.77486700 
C       3.00673877      -0.61297660       2.35064383 
H       3.11661611      -0.68976294       0.30644600 
H       4.00127725       0.45169462       0.90939484 
H       1.14760494      -0.09990531       3.04053753 
H       1.61189584      -1.50193018       3.55607154 
H       3.52164594      -1.43390536       2.36666744 
H       3.39678147      -0.01131754       3.00217367 
