24
Properties=species:S:1:pos:R:3 2c24 h20 p=T pbc="F F F" h12=T v,=T c6=T o=T s4=T
V      -0.22318586      -0.07197231       0.34063426 
S       1.66841690       1.23010935       0.98437451 
S      -1.22976293      -1.06669973      -1.60438123 
S       1.46109801      -1.83521600       0.27470697 
S      -1.31610750       1.80902018      -0.64264482 
O      -1.07125420      -0.44489215       1.66829432 
C       1.21807294       2.86288734       1.68296779 
H       1.37577656       2.83732162       2.63954706 
H       1.81742146       3.52865725       1.30828825 
C      -0.21780385       3.32895793       1.44942057 
H      -0.82296867       2.73584073       1.92162441 
H      -0.32536021       4.21912298       1.81955792 
C      -0.59822924       3.35700385      -0.02461378 
H       0.19337035       3.56099776      -0.54504786 
H      -1.23672752       4.07361291      -0.16693648 
C      -1.18757920      -2.83523606      -1.15471072 
C       1.36800101      -2.73111494      -1.31422713 
C       0.10303767      -3.54959407      -1.52692828 
H      -1.32126158      -2.91512699      -0.19819311 
H      -1.92801840      -3.28441616      -1.59267139 
H       1.44166756      -2.08519534      -2.03602596 
H       2.13189215      -3.32510158      -1.37781808 
H       0.16957639      -4.36183978      -1.00239068 
H       0.05546920      -3.80776075      -2.45950817 
