24
Properties=species:S:1:pos:R:3 2c24 h20 p=T pbc="F F F" h12=T v,=T c6=T o=T s4=T
V       0.36220417       0.00556933      -0.19950130 
S      -1.32693123       0.63298075      -1.76192112 
S       0.63084285      -0.62287025       2.10672121 
S      -0.58015939      -2.20631427      -0.61145850 
S       0.30033545       2.13282333       0.88235400 
O       1.78228652      -0.06722884      -0.97347603 
C      -1.10686909       2.32762673      -2.42264335 
H      -0.80435095       2.25790873      -3.34144153 
H      -1.97471473       2.76297368      -2.43568042 
C      -0.13238426       3.22979350      -1.66767136 
H       0.76298505       2.86563877      -1.74948865 
H      -0.13388908       4.10922027      -2.07702469 
C      -0.47904545       3.37071132      -0.19177993 
H      -1.44079167       3.30618322      -0.09190308 
H      -0.21072416       4.25391305       0.10725641 
C       1.30967482      -2.30836417       1.93351271 
C      -0.95322187      -3.03327031       0.97378017 
C       0.25873545      -3.40216701       1.81660684 
H       1.87434962      -2.33572213       1.14638286 
H       1.87000568      -2.49769633       2.70293145 
H      -1.52622379      -2.44941146       1.49762182 
H      -1.45539516      -3.84187014       0.78835656 
H       0.67306439      -4.18970992       1.43265649 
H      -0.04385665      -3.63639548       2.70665915 
