24
Properties=species:S:1:pos:R:3 2c24 h20 p=T pbc="F F F" h12=T v,=T c6=T o=T s4=T
V       0.05806930      -0.13341419       0.38710755 
S      -2.26689053       0.33179958       0.12997506 
S       2.11898093      -0.08723161      -0.85235835 
S       0.16707118       2.30043354       0.50831273 
S      -0.09947695      -2.15610736      -0.87120073 
O       0.33141389      -0.57470203       1.92057359 
C      -3.32831510      -1.14513689       0.35097904 
H      -3.78538549      -1.06533310       1.20261625 
H      -4.00672782      -1.13757493      -0.34368057 
C      -2.62341834      -2.49985594       0.31403176 
H      -2.02725215      -2.56640563       1.07636107 
H      -3.28647120      -3.20345737       0.39321360 
C      -1.82339769      -2.71572725      -0.96333031 
H      -2.26346410      -2.24583048      -1.68764629 
H      -1.83134332      -3.66181529      -1.17854797 
C       3.08464863       1.11941430       0.11882410 
C       1.43760556       2.92856793      -0.64373028 
C       2.87299734       2.56992086      -0.28833638 
H       2.85052067       1.02277278       1.05425128 
H       4.02722919       0.90654575       0.02909453 
H       1.24499142       2.58397859      -1.53130587 
H       1.36431292       3.89462054      -0.68573201 
H       3.16231776       3.14101067       0.43930385 
H       3.43739972       2.76204927      -1.05198203 
