24
Properties=species:S:1:pos:R:3 2c24 h20 p=T pbc="F F F" h12=T v,=T c6=T o=T s4=T
V      -0.21028934       0.07587735       0.34791474 
S      -0.33687140      -2.26879367      -0.06978609 
S       0.73169758       2.08781387      -0.57433110 
S      -1.86564822       0.12278500      -1.44311109 
S       2.05170549      -0.07253830       1.09678078 
O      -1.09888684       0.41733979       1.65740633 
C       0.43136520      -3.28066827       1.25033834 
H      -0.27733135      -3.70813781       1.75589439 
H       0.95157209      -3.98410672       0.82913515 
C       1.33752356      -2.54088993       2.23274014 
H       0.80248732      -1.91551461       2.74619012 
H       1.72183278      -3.18113189       2.85190127 
C       2.46349587      -1.78276213       1.54301852 
H       2.71193123      -2.26181406       0.73810600 
H       3.23614315      -1.77278475       2.12985835 
C      -0.77741646       3.05522593      -0.91841323 
C      -1.37293506       1.33250097      -2.71976084 
C      -1.39957177       2.78923914      -2.28102799 
H      -1.43458685       2.85836086      -0.23390559 
H      -0.56187685       3.99933090      -0.85492302 
H      -0.47349740       1.11687393      -3.01666032 
H      -1.96217922       1.23137203      -3.48327762 
H      -2.32094792       3.08941042      -2.26449409 
H      -0.93186193       3.31973936      -2.94317229 
