24
Properties=species:S:1:pos:R:3 2c24 h20 p=T pbc="F F F" h12=T v,=T c6=T o=T s4=T
V       0.34444671       0.20105581      -0.10934655 
S      -1.36595742       0.81629680      -1.65335931 
S       0.69838399      -1.16945514       1.83543967 
S       0.32243516      -1.83878978      -1.44678152 
S      -0.56923639       1.57758753       1.61396184 
O       1.72983674       0.90479295      -0.56367996 
C      -1.75881161       2.60556147      -1.62167733 
H      -1.40098856       3.00886044      -2.42782901 
H      -2.72427764       2.70452609      -1.65224420 
C      -1.23656757       3.39451307      -0.42237554 
H      -0.26690857       3.40330916      -0.44831779 
H      -1.54380803       4.31214381      -0.48961371 
C      -1.69322911       2.81648012       0.91015043 
H      -2.56503593       2.41091906       0.78945186 
H      -1.79195527       3.54261540       1.54611037 
C       1.96687449      -2.32896655       1.22048526 
C       0.19713837      -3.30006526      -0.35820986 
C       1.40961729      -3.56102084       0.52331108 
H       2.54413381      -1.85705875       0.60140999 
H       2.51310082      -2.61682191       1.96921659 
H      -0.58113063      -3.19198633       0.21297203 
H       0.04508848      -4.08280837      -0.91010447 
H       2.10929840      -3.95089228      -0.02235987 
H       1.16701087      -4.21393939       1.19670364 
