24
Properties=species:S:1:pos:R:3 2c24 h20 p=T pbc="F F F" h12=T v,=T c6=T o=T s4=T
V       0.14355756       0.37432582      -0.10146453 
S       0.72386487      -1.11940530      -1.86781385 
S      -0.98812929       0.40506588       2.02082321 
S       2.00095885      -0.76639798       0.99352246 
S      -2.14253005       0.46128485      -0.78387920 
O       0.76911315       1.83122034      -0.42873948 
C      -0.03832232      -0.67181989      -3.47266405 
H       0.65488457      -0.31217696      -4.04771979 
H      -0.36731297      -1.48488512      -3.88924906 
C      -1.18541582       0.33572692      -3.42232322 
H      -0.84160350       1.19062195      -3.11911289 
H      -1.53815286       0.45812381      -4.31762173 
C      -2.31607743      -0.10077588      -2.50071759 
H      -2.36439651      -1.06862203      -2.50656147 
H      -3.15358465       0.23783006      -2.85482497 
C       0.36774677       0.91071025       3.13331037 
C       1.49342264      -1.34050494       2.65147956 
C       1.21050202      -0.23974069       3.66318905 
H       0.94646932       1.52521217       2.65723572 
H      -0.01180336       1.38988386       3.88707218 
H       0.69422463      -1.88455655       2.55701886 
H       2.19223384      -1.91132219       3.00675998 
H       2.05596586       0.11498582       3.97730715 
H       0.75677640      -0.62983979       4.42514299 
