24
Properties=species:S:1:pos:R:3 2c24 h20 p=T pbc="F F F" h12=T v,=T c6=T o=T s4=T
V       0.39757720       0.01728110      -0.11250501 
S      -0.65025726       2.02087567      -0.87120845 
S      -0.09934181      -2.01454753       1.07514361 
S      -0.78850969      -0.90721584      -2.03310132 
S       0.43643461       0.77003578       2.15273200 
O       1.93653902       0.01537126      -0.61506168 
C       0.05324885       3.53493785      -0.11655550 
H       0.57823220       3.99386402      -0.79060829 
H      -0.68118068       4.12138397       0.12746743 
C       0.93245572       3.33384181       1.11635323 
H       1.73212446       2.84921324       0.85817889 
H       1.20664505       4.20093015       1.45390601 
C       0.22592936       2.57100499       2.22864267 
H      -0.72083363       2.77422161       2.19072308 
H       0.56070034       2.88672437       3.08287567 
C       0.27608280      -3.26591869      -0.19954473 
C      -1.72950869      -2.39069833      -1.53328723 
C      -0.88615287      -3.59000144      -1.12621826 
H       1.02006529      -2.95013052      -0.73428520 
H       0.55814898      -4.08306051       0.24152265 
H      -2.30577413      -2.15259841      -0.78839864 
H      -2.30229104      -2.65447395      -2.26999369 
H      -0.53580842      -4.00688041      -1.92795441 
H      -1.45967952      -4.23639253      -0.68819565 
