24
Properties=species:S:1:pos:R:3 2c24 h20 p=T pbc="F F F" h12=T v,=T c6=T o=T s4=T
V      -0.10191905       0.39282605      -0.07952263 
S       2.24926008       0.32764329       0.31504937 
S      -2.01987718      -1.05587424      -0.17155193 
S      -0.15499465       0.17981144       2.34987948 
S       0.12976083      -0.56369487      -2.25457214 
O      -0.54627824       1.93280301      -0.30752743 
C       3.24011314       0.85399229      -1.13338881 
H       3.60770420       1.73177519      -0.94646122 
H       3.98736922       0.24125147      -1.22830995 
C       2.50539118       0.92047074      -2.47102572 
H       1.83117806       1.61649760      -2.42661589 
H       3.13662889       1.16238872      -3.16671134 
C       1.83756633      -0.39571677      -2.84512163 
H       2.36388442      -1.12419363      -2.48262229 
H       1.84154663      -0.48226500      -3.81153661 
C      -3.04770533      -0.36148365       1.16751296 
C      -1.28010523      -1.17460874       2.83535420 
C      -2.75423471      -0.93116842       2.54732435 
H      -2.91543330       0.59819732       1.19389558 
H      -3.98131622      -0.52301333       0.95750969 
H      -1.00546223      -1.98318544       2.37231276 
H      -1.17587880      -1.33545004       3.78596481 
H      -3.10197352      -0.32042947       3.21469668 
H      -3.23013297      -1.76959714       2.64311675 
