24
Properties=species:S:1:pos:R:3 2c24 h20 p=T pbc="F F F" h12=T v,=T c6=T o=T s4=T
V      -0.15155139      -0.18774452      -0.33586874 
S      -2.00101900       0.42179312       1.04105267 
S       2.24926429      -0.05573725      -0.40237769 
S       0.06912933      -1.93652500       1.35032630 
S       0.18003702       2.06024370      -1.06802055 
O      -0.70773349      -1.00393872      -1.61862314 
C      -3.14218096       1.60732405       0.23540262 
H      -3.95320357       1.13248790      -0.00405696 
H      -3.38497450       2.28496516       0.88709795 
C      -2.61748796       2.31341490      -1.01345335 
H      -2.48389129       1.65668208      -1.71476845 
H      -3.28444409       2.94639217      -1.32244064 
C      -1.30933146       3.05321286      -0.76909118 
H      -1.29575331       3.36363678       0.14881277 
H      -1.28211531       3.83415664      -1.34428719 
C       2.69677878      -1.82521226      -0.42219559 
C       1.78712217      -1.99835511       1.96732807 
C       2.82615502      -2.45807553       0.95522630 
H       2.02374237      -2.30954863      -0.92381273 
H       3.54073721      -1.92651617      -0.89048418 
H       2.03333232      -1.11234365       2.28037232 
H       1.81843021      -2.59471659       2.73137414 
H       2.76014830      -3.42041519       0.86112181 
H       3.70734453      -2.25903810       1.30523661 
