24
Properties=species:S:1:pos:R:3 2c24 h20 p=T pbc="F F F" h12=T v,=T c6=T o=T s4=T
V       0.21468226       0.31317858       0.16387295 
S       0.43624674      -1.55370258       1.63140253 
S      -0.82067824       0.94086242      -1.91454158 
S      -1.99002778       0.41410657       1.20274446 
S       1.73366582      -0.62014959      -1.42390401 
O       0.97269900       1.58282371       0.82294974 
C       2.16622254      -2.12905187       1.81296007 
H       2.48060955      -1.87137728       2.69348976 
H       2.16830860      -3.09939511       1.77714621 
C       3.16597200      -1.61185264       0.78023831 
H       3.26225282      -0.65251320       0.88694719 
H       4.03115760      -2.01755213       0.94704848 
C       2.74627804      -1.91333093      -0.65198205 
H       2.24720168      -2.74396293      -0.66024717 
H       3.54417790      -2.04407236      -1.18838380 
C      -1.93218910       2.27907582      -1.36188230 
C      -3.28376299       0.51741649      -0.08239749 
C      -3.29907879       1.80790137      -0.88843490 
H      -1.50249332       2.76002889      -0.63853925 
H      -2.05598251       2.90230832      -2.09542095 
H      -3.16804267      -0.22709169      -0.69554414 
H      -4.14889452       0.41103110       0.34260039 
H      -3.69607858       2.50574915      -0.34556307 
H      -3.86768066       1.68166955      -1.66262835 
