24
Properties=species:S:1:pos:R:3 2c24 h20 p=T pbc="F F F" h12=T v,=T c6=T o=T s4=T
V       0.33553790      -0.23777555      -0.04359759 
S      -0.72956200      -0.86720252       1.99536368 
S       0.08634904       1.28882799      -1.88564858 
S       1.04396996       1.65252284       1.32573906 
S      -1.30455673      -1.35704513      -1.36903088 
O       1.70226253      -1.09152896      -0.19896564 
C      -1.30299527      -2.60728988       2.00410803 
H      -0.71685573      -3.11676323       2.58500843 
H      -2.19132734      -2.63175530       2.39541424 
C      -1.35945738      -3.31067044       0.64927370 
H      -0.45815026      -3.39909182       0.30168761 
H      -1.71964298      -4.20306606       0.77117619 
C      -2.21413055      -2.56712293      -0.36805526 
H      -2.92612309      -2.10773267       0.10218112 
H      -2.62426069      -3.21547771      -0.96210382 
C       1.61381875       2.27609780      -1.73125173 
C       0.68435886       3.22115501       0.46197605 
C       1.49956661       3.47219542      -0.79806250 
H       2.32424107       1.69994539      -1.41105178 
H       1.86846026       2.59343312      -2.61231842 
H      -0.25797479       3.23327012       0.22640663 
H       0.83849925       3.95404004       1.07802303 
H       2.39149787       3.74836121      -0.53825245 
H       1.09708514       4.20672126      -1.28499012 
