24
Properties=species:S:1:pos:R:3 2c24 h20 p=T pbc="F F F" h12=T v,=T c6=T o=T s4=T
V       0.14330619       0.30319573       0.24199034 
S      -1.02272508      -1.23872963       1.63870664 
S       0.74714543       0.64756580      -2.06073689 
S      -2.13563651       0.94957640      -0.34007417 
S       2.02105420      -1.15438190       0.02068048 
O       0.64163707       1.54852487       1.14851779 
C       0.04863397      -2.02365758       2.90080178 
H      -0.17316885      -1.64410665       3.76527418 
H      -0.16731589      -2.96969845       2.93580609 
C       1.55575704      -1.88618808       2.69297865 
H       1.80182976      -0.95149822       2.77539239 
H       2.01716370      -2.37741116       3.39066598 
C       2.01551115      -2.40382731       1.33689491 
H       1.43473814      -3.13230544       1.07021651 
H       2.91279892      -2.76140784       1.42895559 
C      -0.10208065       2.22433238      -2.41333581 
C      -2.33156061       0.98728816      -2.15561957 
C      -1.54459727       2.07426703      -2.87286971 
H      -0.08705087       2.77026708      -1.61276796 
H       0.39448476       2.69732136      -3.10001385 
H      -2.06064496       0.12516205      -2.51195610 
H      -3.27211366       1.10325321      -2.36130300 
H      -1.99991107       2.92015113      -2.74449678 
H      -1.54804532       1.88238812      -3.82249524 
