24
Properties=species:S:1:pos:R:3 2c24 h20 p=T pbc="F F F" h12=T v,=T c6=T o=T s4=T
V      -0.33093656       0.24467470       0.04048367 
S       0.31670712      -0.45341672       2.22708038 
S       0.31154946      -0.00203401      -2.26431824 
S      -1.20358351      -2.03176357      -0.04015720 
S       1.47909641       1.79346003      -0.11601832 
O      -1.67848229       1.13411919       0.15871797 
C       0.80998940       0.93713033       3.31329294 
H       0.10772174       1.07436636       3.96793356 
H       1.60986024       0.67475037       3.79725201 
C       1.08621141       2.27225801       2.62434902 
H       0.26114395       2.60427525       2.23702850 
H       1.38259161       2.91493009       3.28774574 
C       2.14146427       2.16694305       1.53181184 
H       2.77266505       1.47355740       1.77655042 
H       2.62775809       3.00542864       1.48794186 
C      -1.17834063      -0.79427962      -2.96021924 
C      -0.63034551      -2.86877089      -1.55898256 
C      -1.19020888      -2.31227907      -2.85980998 
H      -1.95750898      -0.44715928      -2.50023703 
H      -1.25445760      -0.54475608      -3.89497414 
H       0.33894041      -2.81424062      -1.59280124 
H      -0.86590167      -3.80764957      -1.50055536 
H      -2.10310274      -2.62195756      -2.95998090 
H      -0.67672766      -2.67477919      -3.59706758 
