24
Properties=species:S:1:pos:R:3 2c24 h20 p=T pbc="F F F" h12=T v,=T c6=T o=T s4=T
V       0.21172381       0.35493157      -0.01484095 
S       0.21239244      -0.57302253      -2.21185709 
S      -0.61208758      -0.09303780       2.20020387 
S       1.87950912      -1.39005516       0.33686971 
S      -2.06013081       1.06450726      -0.20092452 
O       1.10863662       1.70269691      -0.02164671 
C      -0.61930073       0.49397990      -3.44741304 
H       0.06136867       0.88829254      -4.01466487 
H      -1.17438385      -0.06990436      -4.01023651 
C      -1.49028883       1.62088392      -2.89516734 
H      -0.92531880       2.25732414      -2.42961213 
H      -1.91340998       2.08471967      -3.63461898 
C      -2.56818523       1.12258948      -1.94220915 
H      -2.83695117       0.23284240      -2.21645365 
H      -3.34316162       1.70121573      -2.02010403 
C       0.95016160      -0.22219982       3.13529662 
C       1.46273226      -2.36394458       1.82477091 
C       1.56619834      -1.61322962       3.14424200 
H       1.59079513       0.39802619       2.75570754 
H       0.78629801       0.05025119       4.05221629 
H       0.55489588      -2.69638211       1.73016205 
H       2.05080799      -3.13406442       1.86318922 
H       2.50251578      -1.53554208       3.38211691 
H       1.13288128      -2.13868857       3.83326107 
