24
Properties=species:S:1:pos:R:3 2c24 h20 p=T pbc="F F F" h12=T v,=T c6=T o=T s4=T
V       0.24519112      -0.25822654      -0.21029506 
S      -0.98307687      -1.55972977       1.36622840 
S       0.50214953       2.01339463      -0.95827565 
S       1.49363029       0.34373753       1.79699810 
S      -1.64877044      -0.01318182      -1.64288393 
O       1.27944073      -1.22959706      -0.98987020 
C      -2.07006929      -2.80866409       0.58174337 
H      -1.67756222      -3.68410921       0.72352480 
H      -2.92564660      -2.79704321       1.04076996 
C      -2.32943125      -2.63975231      -0.91415383 
H      -1.49712108      -2.76879649      -1.39539841 
H      -2.95086141      -3.32479753      -1.20656012 
C      -2.89987141      -1.27231724      -1.26487688 
H      -3.43795203      -0.96113639      -0.52141823 
H      -3.48566529      -1.36781247      -2.03246437 
C       2.25955057       2.31405444      -0.56731648 
C       1.64908985       2.15963854       1.91678705 
C       2.51434741       2.81085032       0.84789291 
H       2.75195664       1.48994645      -0.69983730 
H       2.60906598       2.96821056      -1.19320885 
H       0.75979028       2.54788566       1.87158864 
H       2.01775688       2.38025853       2.78615754 
H       3.44531394       2.65499399       1.06771167 
H       2.36552596       3.76789739       0.87093936 
