24
Properties=species:S:1:pos:R:3 2c24 h20 p=T pbc="F F F" h12=T v,=T c6=T o=T s4=T
V      -0.38130857      -0.13975314       0.07807992 
S       0.74777997      -1.80991834      -1.19615962 
S      -0.02117916       2.03563188       1.03921056 
S      -0.51054329       0.93361789      -2.10855217 
S       0.82164520      -0.69196547       2.06488941 
O      -1.90744885      -0.62030097       0.32494014 
C       0.93353315      -3.39842906      -0.30232761 
H       0.32144603      -4.04038089      -0.69452032 
H       1.83446954      -3.72764351      -0.45327278 
C       0.68526764      -3.36299532       1.20452904 
H      -0.24744119      -3.15085023       1.36589091 
H       0.85791951      -4.24308473       1.57412043 
C       1.55871024      -2.34438334       1.92412266 
H       2.40078390      -2.26878356       1.45052823 
H       1.75120284      -2.67517512       2.81574352 
C      -1.27512013       3.02209717       0.15251893 
C       0.07605742       2.65957587      -1.99461274 
C      -0.80350787       3.59338899      -1.17629735 
H      -2.05145704       2.46463798      -0.00785481 
H      -1.55381364       3.75538612       0.72386802 
H       0.96650439       2.65655244      -1.60637637 
H       0.15251120       3.01850924      -2.89222918 
H      -1.58073354       3.82763047      -1.70578895 
H      -0.31096946       4.40975315      -1.00432779 
