24
Properties=species:S:1:pos:R:3 2c24 h20 p=T pbc="F F F" h12=T v,=T c6=T o=T s4=T
V      -0.35351690      -0.11025855      -0.18409915 
S       0.83523460      -2.10980216       0.34189930 
S      -0.16697878       2.27948742       0.01610827 
S       1.31113639      -0.01287075      -1.96444516 
S      -1.00199644       0.22764405       2.08850823 
O      -1.70330253      -0.50588692      -0.98567714 
C      -0.06097904      -3.19653699       1.51348572 
H      -0.39305830      -3.96377831       1.02192488 
H       0.57532408      -3.52573958       2.16892219 
C      -1.23401128      -2.56683706       2.26247278 
H      -1.93060783      -2.34168676       1.62603776 
H      -1.59804123      -3.21694029       2.88361031 
C      -0.83997867      -1.31382718       3.03253242 
H       0.08037857      -1.40467563       3.32198735 
H      -1.39346002      -1.25069106       3.82697346 
C      -0.17550891       2.77961335      -1.73931335 
C       2.10233816       1.63309892      -1.99267928 
C       1.19494738       2.78466253      -2.39989586 
H      -0.75408724       2.17697792      -2.23049268 
H      -0.55529246       3.67017499      -1.80629799 
H       2.45699853       1.81884667      -1.10761079 
H       2.85339534       1.60305036      -2.60538133 
H       1.07523079       2.75769734      -3.36127560 
H       1.63873913       3.61850477      -2.18454949 
