24
Properties=species:S:1:pos:R:3 2c24 h20 p=T pbc="F F F" h12=T v,=T c6=T o=T s4=T
V       0.08840550      -0.28340519       0.28790555 
S      -1.42495357      -1.28251225      -1.26112917 
S       1.24417356       1.78590135       0.69770539 
S      -1.96134475       0.80217437       1.04303984 
S       1.92236507      -0.45531579      -1.23080681 
O       0.38528198      -1.34088032       1.47726717 
C      -0.71540391      -2.72827477      -2.13469441 
H      -1.13045148      -3.53011886      -1.78064710 
H      -0.95951612      -2.66563239      -3.07242472 
C       0.80016807      -2.89818738      -2.04706141 
H       1.04457378      -3.08138355      -1.12635844 
H       1.06396871      -3.66304588      -2.58219180 
C       1.56180660      -1.67105855      -2.52908726 
H       1.04350253      -1.23790742      -3.22395130 
H       2.39938987      -1.96077716      -2.92403250 
C       0.55043375       2.25940814       2.31826708 
C      -1.70809160       2.60732496       1.15839897 
C      -0.74032463       3.06101781       2.24139112 
H       0.38516970       1.45436844       2.83186065 
H       1.21219561       2.78252015       2.79810830 
H      -1.38255739       2.92742264       0.30096244 
H      -2.56664661       3.02894215       1.31813578 
H      -1.18956426       3.00724838       3.09848084 
H      -0.51771617       3.99113537       2.08664985 
