24
Properties=species:S:1:pos:R:3 2c24 h20 p=T pbc="F F F" h12=T v,=T c6=T o=T s4=T
V       0.07325729       0.38392313       0.13512974 
S      -0.87487186       0.56000440      -2.04616017 
S       0.71423731      -1.26579059       1.76404182 
S       2.04283226      -0.24305022      -1.16019482 
S      -2.03330089      -0.15139861       1.12269821 
O       0.45288078       1.86895278       0.65622788 
C      -2.47673142       1.44902460      -2.06841373 
H      -2.33311514       2.32273165      -2.46411347 
H      -3.08453768       0.96403105      -2.64996837 
C      -3.16363782       1.64496484      -0.71812662 
H      -2.61841648       2.22940870      -0.16844670 
H      -4.01837055       2.08158585      -0.85868941 
C      -3.39334019       0.33558279       0.02419595 
H      -3.53367277      -0.36885171      -0.62632219 
H      -4.20421830       0.41543807       0.55103955 
C       2.50684902      -0.94860936       1.89686926 
C       2.75234225      -1.79518603      -0.50943868 
C       3.35677478      -1.70080997       0.88377221 
H       2.66244724       0.00163149       1.78727448 
H       2.79974516      -1.19255890       2.78935063 
H       2.05437455      -2.47070020      -0.49702348 
H       3.43967477      -2.09990981      -1.12190178 
H       4.21870385      -1.26273668       0.81683745 
H       3.51064708      -2.59814297       1.21503473 
