24
Properties=species:S:1:pos:R:3 2c24 h20 p=T pbc="F F F" h12=T v,=T c6=T o=T s4=T
V       0.40201743       0.08213933      -0.05156321 
S      -0.18494625       0.73573702       2.16570152 
S      -0.56507117      -0.88586074      -2.02981517 
S      -0.76576165       2.15509574      -0.58945781 
S       0.38532738      -2.23709491       0.51440693 
O       1.95112091       0.47272346      -0.31365628 
C       0.72070710      -0.19582333       3.45751944 
H       1.37802752       0.39682985       3.85407966 
H       0.09016236      -0.43738038       4.15531347 
C       1.43762565      -1.46567729       3.00253926 
H       2.15220764      -1.22354508       2.39283973 
H       1.83846631      -1.89602869       3.77395891 
C       0.50829045      -2.45447522       2.31195829 
H      -0.37719868      -2.36746054       2.69592768 
H       0.82123475      -3.35451023       2.49489869 
C      -0.32106126       0.46317841      -3.23491115 
C      -2.00612247       1.85426815      -1.89598808 
C      -1.43918190       1.49451158      -3.26143149 
H       0.51194045       0.91436028      -3.03065014 
H      -0.23519312       0.07609529      -4.12069658 
H      -2.58987379       1.13415089      -1.60564696 
H      -2.55245013       2.64984723      -1.99071728 
H      -1.10495704       2.30268366      -3.67911775 
H      -2.15862312       1.15616116      -3.81509329 
