24
Properties=species:S:1:pos:R:3 2c24 h20 p=T pbc="F F F" h12=T v,=T c6=T o=T s4=T
V       0.24945420      -0.27476044      -0.18249095 
S      -0.08702570      -0.99431487       2.06628691 
S      -0.38753683       1.48424330      -1.69441475 
S       1.72700503       1.31882228       0.92544612 
S      -1.92972852      -0.98713015      -0.84817876 
O       1.29361864      -1.28382479      -0.89836810 
C      -0.91045246      -2.62652505       2.18738398 
H      -0.25045242      -3.27892010       2.46907277 
H      -1.58351418      -2.57545782       2.88540477 
C      -1.58040306      -3.14529295       0.91633940 
H      -0.89908958      -3.31442863       0.24686646 
H      -2.02012904      -3.98751522       1.11195777 
C      -2.60501596      -2.17264305       0.34852965 
H      -3.00388150      -1.67994629       1.08150389 
H      -3.31014514      -2.68100936      -0.08253981 
C       1.23695308       2.22486593      -2.07417053 
C       1.35458827       3.01539522       0.36068107 
C       1.68207770       3.30280213      -1.09720440 
H       1.90352188       1.52147345      -2.08439465 
H       1.20227360       2.60877353      -2.96480783 
H       0.40897643       3.18612812       0.50316256 
H       1.84844301       3.63953348       0.91471404 
H       2.64058914       3.41943891      -1.18064222 
H       1.26349506       4.13960435      -1.34853819 
