24
Properties=species:S:1:pos:R:3 2c24 h20 p=T pbc="F F F" h12=T v,=T c6=T o=T s4=T
V      -0.35336084      -0.21319782       0.02657918 
S       1.11953614      -1.05413280       1.70329681 
S      -0.44580094       1.44066389      -1.71754283 
S       1.10507645      -1.53661855      -1.41276274 
S      -0.81433511       1.76844271       1.27559949 
O      -1.71529872      -1.08821703       0.04748169 
C       0.48326444      -0.82370386       3.40590276 
H       0.20255120      -1.68816050       3.74425572 
H       1.21622860      -0.51806260       3.96465131 
C      -0.68021641       0.15247300       3.56991275 
H      -1.45797615      -0.20367165       3.11248545 
H      -0.89865786       0.22849819       4.51196760 
C      -0.37140478       1.53847822       3.02044734 
H       0.57689247       1.70877882       3.12449105 
H      -0.84844187       2.19616190       3.55087372 
C      -0.68711936       0.38602941      -3.18765007 
C       1.67967117      -0.52577401      -2.82132504 
C       0.60126709      -0.12314087      -3.81641966 
H      -1.23161235      -0.37542498      -2.93686315 
H      -1.17903862       0.89120359      -3.85446114 
H       2.09305713       0.28100214      -2.47224520 
H       2.36541007      -1.02073770      -3.29584239 
H       0.39278228      -0.88946569      -4.37192891 
H       0.95714961       0.56799469      -4.39460417 
