24
Properties=species:S:1:pos:R:3 2c24 h20 p=T pbc="F F F" h12=T v,=T c6=T o=T s4=T
V      -0.38238520      -0.15740799       0.00528432 
S      -0.37343531       1.65309130      -1.54713036 
S       1.08239841      -1.33842109       1.50374432 
S      -0.40805397       1.68324513       1.60576053 
S       0.78092639      -1.59579817      -1.50375114 
O      -1.88930811      -0.73911194       0.11379330 
C      -0.76258584       1.13714258      -3.26152967 
H      -1.65713480       1.44492315      -3.47512088 
H      -0.14899363       1.59145765      -3.86149250 
C      -0.69228353      -0.36080910      -3.55257368 
H      -1.38434554      -0.81369742      -3.04568978 
H      -0.86949770      -0.50841399      -4.49479009 
C       0.65909152      -0.96862944      -3.20239196 
H       1.34466141      -0.29659633      -3.33453004 
H       0.83988476      -1.69809419      -3.81611773 
C       0.26770473      -1.02740599       3.10725535 
C       0.90050083       1.44328657       2.85720679 
C       0.69727973       0.26086734       3.79308502 
H      -0.69088812      -0.99941975       2.96762730 
H       0.45588165      -1.77210325       3.70041465 
H       1.74851970       1.32956061       2.39724719 
H       0.96665440       2.24965702       3.39179449 
H       0.02665660       0.49990947       4.45068191 
H       1.52575785       0.09684705       4.26778430 
