24
Properties=species:S:1:pos:R:3 2c24 h20 p=T pbc="F F F" h12=T v,=T c6=T o=T s4=T
V       0.22948290       0.08003778      -0.33459706 
S       1.33645655      -1.63320508       0.90127809 
S      -1.74687838       1.44945267      -0.26778198 
S       1.15658682       1.46766491       1.44449151 
S      -1.42462351      -1.43360172      -1.15452124 
O       1.14897886       0.47766006      -1.60636515 
C       1.49570960      -3.20536826      -0.02594766 
H       2.42338880      -3.30970437      -0.28880351 
H       1.28154516      -3.93585224       0.57686220 
C       0.62796801      -3.34816990      -1.27500350 
H       0.91464750      -2.69727296      -1.93465264 
H       0.76044442      -4.23181750      -1.65260219 
C      -0.85460393      -3.14882134      -0.99122913 
H      -1.04121650      -3.45295503      -0.09024439 
H      -1.36498287      -3.70472087      -1.60110895 
C      -1.01347039       3.11838114      -0.17561766 
C      -0.15098843       2.52152076       2.16257811 
C      -0.70468969       3.59405403       1.23609583 
H      -0.19304174       3.12532934      -0.69139672 
H      -1.62465345       3.74904126      -0.58858932 
H      -0.88439788       1.95107642       2.44601468 
H       0.20288264       2.95385322       2.95520508 
H      -0.06305655       4.31863780       1.18515019 
H      -1.51655638       3.95036098       1.62665424 
