24
Properties=species:S:1:pos:R:3 2c24 h20 p=T pbc="F F F" h12=T v,=T c6=T o=T s4=T
V      -0.25676975       0.31253960       0.08609263 
S       1.63118387       0.51712026       1.52892215 
S      -1.12048734      -1.08511341      -1.67070084 
S      -0.82369789      -1.45708824       1.66634472 
S       0.96613019       1.11285024      -1.80162208 
O      -1.32230258       1.47268620       0.45981710 
C       2.57232348       2.06799413       1.27230436 
H       2.40019091       2.65514137       2.02476460 
H       3.51923021       1.85327742       1.28313772 
C       2.27321273       2.83946907      -0.01177798 
H       1.35937046       3.16329734       0.02010448 
H       2.85992251       3.61036425      -0.06133692 
C       2.45839980       1.99564565      -1.26555432 
H       3.15995154       1.34745996      -1.10192206 
H       2.75356073       2.57282280      -1.98750370 
C      -2.66216587      -1.69482297      -0.90703511 
C      -1.22244494      -2.99587049       0.76680955 
C      -2.49488328      -2.95176106      -0.06639941 
H      -3.02893101      -0.99402661      -0.34708219 
H      -3.30626957      -1.87546114      -1.61011603 
H      -0.47814242      -3.21100060       0.18083581 
H      -1.30223671      -3.71675874       1.41050747 
H      -3.25588485      -3.02967046       0.52867782 
H      -2.50519339      -3.72101208      -0.65526665 
