24
Properties=species:S:1:pos:R:3 2c24 h20 p=T pbc="F F F" h12=T v,=T c6=T o=T s4=T
V       0.07943681      -0.20881672      -0.34800721 
S       0.67303184       2.06971158      -0.72739211 
S      -0.80025525      -1.64767448       1.36710083 
S      -2.16625730       0.70180010      -0.62697287 
S       2.02181630      -0.60348893       0.98272340 
O       0.29683026      -1.03635561      -1.72237608 
C       2.45291108       2.30137018      -1.09504737 
H       2.54333715       2.50730517      -2.03843586 
H       2.76691680       3.07442972      -0.59842646 
C       3.37157213       1.12371238      -0.77459107 
H       3.14343847       0.37894739      -1.35275117 
H       4.28842142       1.37719532      -0.96458480 
C       3.27327689       0.67476585       0.67698476 
H       3.06899856       1.44623042       1.22671909 
H       4.13823472       0.33515416       0.95622694 
C      -2.34381606      -2.22481597       0.58222408 
C      -3.23327578       0.17213918       0.75756474 
C      -3.54338187      -1.31668357       0.80779582 
H      -2.19389035      -2.30907032      -0.37150699 
H      -2.55469430      -3.10794268       0.92491943 
H      -2.80345201       0.42529797       1.59110813 
H      -4.07071713       0.65816858       0.70407630 
H      -4.21253942      -1.51505198       0.13534633 
H      -3.92877908      -1.52281391       1.67243293 
