24
Properties=species:S:1:pos:R:3 2c24 h20 p=T pbc="F F F" h12=T v,=T c6=T o=T s4=T
V       0.03955257       0.01947120      -0.41119352 
S      -1.31947315      -1.87529214       0.08970577 
S       1.21518825       1.81337425       0.67763978 
S       1.79952959      -1.48986889       0.34680402 
S      -1.73869426       1.54692409       0.04066275 
O       0.28567606       0.07201387      -2.01045361 
C      -3.01072165      -1.75560093      -0.60467073 
H      -3.07613409      -2.37095897      -1.35141273 
H      -3.63851772      -2.05473107       0.07300637 
C      -3.45120383      -0.37434808      -1.08594432 
H      -2.90497615      -0.11537382      -1.84459879 
H      -4.37235774      -0.42308118      -1.38605165 
C      -3.33898052       0.69220062      -0.00512652 
H      -3.49343888       0.27721357       0.85686154 
H      -4.03826696       1.35026518      -0.14446010 
C       2.93307007       1.46675622       0.16730480 
C       2.84216155      -0.65919148       1.59536605 
C       3.67830290       0.50165506       1.07711411 
H       2.92201567       1.10085726      -0.73001077 
H       3.42244973       2.30423494       0.13632976 
H       2.26753531      -0.33120613       2.30660633 
H       3.43878880      -1.31696074       1.98494163 
H       4.43708174       0.14285057       0.59252750 
H       4.02379017       0.99603022       1.83530260 
