24
Properties=species:S:1:pos:R:3 2c24 h20 p=T pbc="F F F" h12=T v,=T c6=T o=T s4=T
V       0.11959094       0.02190778      -0.39527421 
S      -0.68304520       2.17841498       0.23180718 
S       0.45813184      -2.17999734       0.51179206 
S      -2.27148384      -0.45658641      -0.45845291 
S       2.15914199       0.31386703       0.81072726 
O       0.51394874       0.05244575      -1.96515309 
C       0.59890689       3.48365147       0.13300053 
H       0.40374299       4.04278501      -0.63501553 
H       0.52473485       4.04189228       0.92402436 
C       2.04590865       3.00733873       0.01977360 
H       2.16196398       2.54881874      -0.82714996 
H       2.63382719       3.77889981       0.02279337 
C       2.45112492       2.07239900       1.15113331 
H       1.95906972       2.31955367       1.94856123 
H       3.39498657       2.19996215       1.33638227 
C      -0.63645236      -3.17230158      -0.56008551 
C      -2.63340093      -1.96745953       0.50190742 
C      -2.07804264      -3.25834725      -0.08158911 
H      -0.62778278      -2.79009294      -1.45060270 
H      -0.27660424      -4.07136327      -0.62348845 
H      -2.27496955      -1.85540977       1.39778924 
H      -3.59552138      -2.05694536       0.58382280 
H      -2.63640642      -3.52470740      -0.82764027 
H      -2.13943021      -3.95280676       0.59114829 
