24
Properties=species:S:1:pos:R:3 2c24 h20 p=T pbc="F F F" h12=T v,=T c6=T o=T s4=T
V      -0.13502858      -0.14725705       0.36208602 
S       0.98822743      -1.92592445      -0.76157646 
S      -0.71112581       2.17079791       0.07836344 
S      -1.87269063      -0.69695961      -1.25919267 
S       1.91796354       0.92601978       0.93892946 
O      -0.75217015      -0.71694603       1.74612399 
C       2.45613646      -2.54132696       0.14579835 
H       2.23945831      -3.40956459       0.51967255 
H       3.17483903      -2.67256657      -0.49380760 
C       2.97845130      -1.65394020       1.27417781 
H       2.31171241      -1.61246300       1.97754673 
H       3.77900678      -2.05519321       1.64709977 
C       3.30305949      -0.23978715       0.81256326 
H       3.59547768      -0.27471036      -0.11067399 
H       4.04215802       0.09795845       1.34277607 
C      -2.53409694       2.08518788       0.11228941 
C      -2.43472082       0.81703842      -2.11238995 
C      -3.17780012       1.81812151      -1.24006667 
H      -2.80009856       1.38394467       0.72603251 
H      -2.87763923       2.92399973       0.45898220 
H      -1.65965601       1.25913669      -2.49639007 
H      -3.01452697       0.55970804      -2.84587445 
H      -4.07868040       1.49152539      -1.09494645 
H      -3.24543630       2.65638155      -1.72106928 
