24
Properties=species:S:1:pos:R:3 2c24 h20 p=T pbc="F F F" h12=T v,=T c6=T o=T s4=T
V      -0.05846732      -0.38090162       0.15006388 
S      -2.13517537       0.35772053      -0.76081490 
S       2.21084372       0.35421825       0.45924264 
S      -0.71257424       1.13846181       1.94278968 
S       0.86891993      -0.78110958      -2.01308998 
O      -0.27726875      -1.83617957       0.82479522 
C      -2.72438102      -0.67973047      -2.15126027 
H      -3.47418890      -1.20911869      -1.83804441 
H      -3.05641945      -0.09154377      -2.84885605 
C      -1.70004258      -1.62665021      -2.77382115 
H      -1.44901130      -2.29566986      -2.11778384 
H      -2.10890058      -2.08541818      -3.52437489 
C      -0.44715357      -0.90840812      -3.25619521 
H      -0.69228954      -0.01502660      -3.54057675 
H      -0.09840752      -1.37830345      -4.03017126 
C       2.33834826       0.34039603       2.28002690 
C       0.66142484       2.27756473       2.33084204 
C       1.88901741       1.62865446       2.95310729 
H       1.80317430      -0.39128635       2.62267716 
H       3.26145326       0.16816860       2.52505219 
H       0.93129089       2.72400926       1.51139587 
H       0.33394406       2.95921688       2.93788430 
H       1.69970798       1.44126289       3.88496378 
H       2.62079347       2.26299518       2.92602010 
