24
Properties=species:S:1:pos:R:3 2c24 h20 p=T pbc="F F F" h12=T v,=T c6=T o=T s4=T
V      -0.06507125       0.40825627      -0.01077942 
S       0.93043722      -0.10400580       2.09505287 
S      -0.78420270      -0.65725639      -2.04383083 
S      -2.02560470      -0.54014885       1.08786667 
S       2.00571603       0.15314330      -1.17104041 
O      -0.41294272       1.98893508      -0.04833298 
C       2.55681116       0.70294555       2.34110880 
H       2.44566772       1.41868754       2.98603397 
H       3.16206814       0.05210013       2.73215511 
C       3.22221877       1.28403738       1.09488521 
H       2.68293690       2.01869089       0.76254769 
H       4.09150548       1.63969394       1.33739886 
C       3.40030499       0.25628184      -0.01429970 
H       3.53354706      -0.61478047       0.38892735 
H       4.20257021       0.47492432      -0.51433004 
C      -2.56944636      -0.27741661      -2.02564808 
C      -2.79120432      -1.80733354       0.01823414 
C      -3.42007759      -1.28308035      -1.26432545 
H      -2.69604844       0.59810308      -1.62989985 
H      -2.88662231      -0.23360774      -2.94178274 
H      -2.11290579      -2.46180977      -0.21672204 
H      -3.47463867      -2.26873846       0.52854443 
H      -4.26784916      -0.86793345      -1.04467437 
H      -3.60564228      -2.03463180      -1.84686664 
