24
Properties=species:S:1:pos:R:3 2c24 h20 p=T pbc="F F F" h12=T v,=T c6=T o=T s4=T
V      -0.31886943       0.15090675      -0.21580797 
S       1.01959577       2.00033488       0.47419612 
S      -0.40267369      -2.24872844      -0.07265392 
S      -1.00929510       0.23664350       2.12217161 
S       1.23945577      -0.48033533      -1.91068382 
O      -1.62404041       0.71615842      -0.98910586 
C       1.72342558       2.94627003      -0.92817205 
H       1.24939004       3.78985320      -0.99317724 
H       2.65012364       3.14991840      -0.72174765 
C       1.67782218       2.26785010      -2.29608103 
H       0.75206545       2.16700288      -2.56773019 
H       2.11776621       2.83759412      -2.94631548 
C       2.34936392       0.90136126      -2.30130310 
H       3.07299970       0.90931719      -1.65680095 
H       2.73737120       0.74940355      -3.17755851 
C      -1.97412256      -2.49131837       0.82367323 
C      -0.87431531      -1.42142114       2.87623769 
C      -1.84623962      -2.46181174       2.33936466 
H      -2.59609637      -1.79971842       0.55161153 
H      -2.35239840      -3.34555845       0.56098751 
H       0.03081320      -1.74744890       2.74177307 
H      -1.01283434      -1.33688821       3.83230268 
H      -2.72101812      -2.29215147       2.72053148 
H      -1.56071082      -3.33657117       2.64249385 
