24
Properties=species:S:1:pos:R:3 2c24 h20 p=T pbc="F F F" h12=T v,=T c6=T o=T s4=T
V       0.12072741      -0.39473127      -0.02521437 
S       0.94475863       0.73224049      -1.95883438 
S      -1.14525052       0.01807012       1.97794818 
S      -1.96797372      -0.26578356      -1.27856467 
S       1.77350121       0.59419679       1.38539127 
O       0.50264762      -1.96391163      -0.13826423 
C       2.77370273       0.73876083      -2.06712646 
H       3.03808681       0.12345401      -2.76860098 
H       3.05814898       1.62668132      -2.33830998 
C       3.53082560       0.36368996      -0.79449333 
H       3.34673748      -0.56414703      -0.57950723 
H       4.48345117       0.44751610      -0.95710185 
C       3.15391235       1.23438188       0.39635481 
H       2.92001751       2.11739673       0.07282269 
H       3.93020570       1.32757001       0.97094071 
C      -2.57383486      -1.08927178       1.72369539 
C      -3.29161108       0.41703703      -0.22132594 
C      -3.72021057      -0.46907814       0.93901216 
H      -2.27173593      -1.88259463       1.25619718 
H      -2.90745633      -1.36931967       2.59092801 
H      -2.99066160       1.26852789       0.13648011 
H      -4.06770431       0.59354558      -0.77532741 
H      -4.27931596      -1.18110384       0.59299086 
H      -4.26110921       0.05750385       1.54626674 
