24
Properties=species:S:1:pos:R:3 2c24 h20 p=T pbc="F F F" h12=T v,=T c6=T o=T s4=T
V      -0.40843677      -0.05634034       0.03207507 
S       0.53643641      -0.41131422       2.19290532 
S       0.23260243       0.51937097      -2.21367437 
S       0.53202790      -2.27417748      -0.35121530 
S      -0.16778941       2.31291982       0.19983474 
O      -1.99767141      -0.35602653       0.10618182 
C      -0.06946968       0.77527924       3.45055391 
H      -0.67395038       0.30453431       4.04517163 
H       0.68909806       1.06824464       3.98121315 
C      -0.78959734       2.01505396       2.92340777 
H      -1.61471680       1.74165264       2.49280525 
H      -1.02056058       2.58829069       3.67108382 
C       0.04933775       2.80955398       1.93182068 
H       0.98404598       2.71069580       2.16770756 
H      -0.17760122       3.74917949       2.01588587 
C      -0.29654052      -0.97270094      -3.12220776 
C       1.52847666      -2.27589348      -1.88193424 
C       0.74259290      -2.08284275      -3.17049943 
H      -1.10105346      -1.31907773      -2.70752530 
H      -0.52147360      -0.71876471      -4.03146241 
H       2.19215181      -1.56949010      -1.81742068 
H       2.00608369      -3.11804653      -1.93728195 
H       0.29620439      -2.91541186      -3.38700844 
H       1.36622197      -1.89145154      -3.88679145 
