24
Properties=species:S:1:pos:R:3 2c24 h20 p=T pbc="F F F" h12=T v,=T c6=T o=T s4=T
V      -0.16640805       0.01854309      -0.37813775 
S       1.01832677      -2.04499497      -0.21629448 
S      -0.69955389       1.97147703       0.92092723 
S       2.09954189       0.89015130      -0.61468985 
S      -1.96357125      -0.78566054       0.97201378 
O      -0.75653008       0.16056686      -1.87898937 
C      -0.06104211      -3.51430326      -0.39768409 
H       0.11016990      -3.91095130      -1.26597246 
H       0.19794455      -4.16552348       0.27439561 
C      -1.56417911      -3.27248840      -0.27273212 
H      -1.85707637      -2.71694509      -1.01203705 
H      -2.02754096      -4.12219649      -0.33796856 
C      -1.94804604      -2.59921750       1.03785545 
H      -1.32393466      -2.87906423       1.72434350 
H      -2.83023012      -2.90772564       1.29869701 
C       0.08672247       3.28157233      -0.07763352 
C       2.36103866       2.27750175       0.54414220 
C       1.55085525       3.53176890       0.25139852 
H       0.01604752       3.04211396      -1.01403312 
H      -0.40569733       4.10779685       0.05158842 
H       2.14467077       1.97369825       1.44109304 
H       3.30207208       2.51158023       0.53659302 
H       1.96055662       3.99642559      -0.49395316 
H       1.59878687       4.11715097       1.02188438 
