24
Properties=species:S:1:pos:R:3 2c24 h20 p=T pbc="F F F" h12=T v,=T c6=T o=T s4=T
V       0.12718875       0.39029843       0.05013780 
S      -0.45953295      -0.45486395       2.20175053 
S       0.22438939      -0.28351087      -2.25687290 
S      -2.29910968       0.51361000      -0.16908146 
S       2.16739657      -0.84856800       0.00312507 
O       0.54636635       1.94666417       0.20174969 
C       0.95083785      -0.49846336       3.37040767 
H       0.82570182       0.20786171       4.02310500 
H       0.92230229      -1.34309048       3.84857471 
C       2.34292845      -0.34252891       2.76108306 
H       2.42419387       0.54710075       2.38300380 
H       3.00674196      -0.42864372       3.46315122 
C       2.63294336      -1.37191768       1.67732228 
H       2.15678284      -2.18860667       1.89036053 
H       3.58199068      -1.57362759       1.68663092 
C      -0.94978063       0.89088563      -3.01438290 
C      -2.82855249      -0.28222843      -1.72546993 
C      -2.39968728       0.43034291      -2.99967510 
H      -0.88846266       1.73660660      -2.54515415 
H      -0.68308831       1.04617995      -3.93448148 
H      -2.47415232      -1.18648359      -1.74432612 
H      -3.79590873      -0.35011465      -1.72283021 
H      -2.97103701       1.20257224      -3.12825008 
H      -2.54215057      -0.16597097      -3.74982977 
