24
Properties=species:S:1:pos:R:3 2c24 h20 p=T pbc="F F F" h12=T v,=T c6=T o=T s4=T
V      -0.07131319       0.28097437       0.29494318 
S      -1.51602854      -1.57176909       0.70496563 
S       1.63068664       1.01735717      -1.23695181 
S      -1.72080334       0.72427207      -1.44656659 
S       1.84064031      -0.89417330       1.10913601 
O      -0.38942766       1.43652529       1.38327933 
C      -1.20048499      -2.39253643       2.31231732 
H      -1.92658164      -2.16840076       2.91490740 
H      -1.22620812      -3.35306766       2.17242072 
C       0.11664948      -2.04681958       3.00452025 
H       0.10406357      -1.11040989       3.25743809 
H       0.19482828      -2.57259642       3.81594531 
C       1.33276964      -2.30856307       2.12655132 
H       1.13774053      -3.05656257       1.54212387 
H       2.07642922      -2.56501979       2.69458718 
C       0.85174823       2.51442098      -1.93247944 
C      -0.88410419       0.99429323      -3.04751526 
C      -0.04186936       2.25839245      -3.13682249 
H       0.32396278       2.93956562      -1.23975002 
H       1.55063617       3.13594547      -2.19148810 
H      -0.31231191       0.23007239      -3.22821539 
H      -1.55694893       1.02418108      -3.74521167 
H      -0.63493821       3.01668507      -3.24894663 
H       0.51428318       2.20360925      -3.92822075 
