24
Properties=species:S:1:pos:R:3 2c24 h20 p=T pbc="F F F" h12=T v,=T c6=T o=T s4=T
V      -0.05460046      -0.00215033      -0.40992415 
S       0.77685308      -2.14858287       0.21416842 
S      -0.67165475       2.11313946       0.55473043 
S       2.28116386       0.60887899      -0.06202321 
S      -2.23473891      -0.48390782       0.43527065 
O      -0.19563003       0.04995944      -2.02186881 
C      -0.38731812      -3.51222697      -0.16264238 
H      -0.03885835      -4.00780601      -0.91997002 
H      -0.40215031      -4.11677685       0.59706311 
C      -1.82634066      -3.10890646      -0.47895703 
H      -1.83763438      -2.60228638      -1.30611934 
H      -2.35669732      -3.90981902      -0.61395602 
C      -2.46282772      -2.27440404       0.62411924 
H      -2.08678432      -2.54669794       1.47473222 
H      -3.41388286      -2.46512982       0.64824657 
C       0.51115985       3.23235800      -0.26989267 
C       2.39051986       2.07026611       1.02811554 
C       1.85156207       3.36483438       0.43743830 
H       0.66653041       2.91007576      -1.17054445 
H       0.10866962       4.11272861      -0.33897036 
H       1.90424824       1.87977817       1.84719228 
H       3.32020585       2.20635038       1.26802933 
H       2.50152424       3.71001873      -0.19320195 
H       1.76217445       4.01551317       1.14964966 
