24
Properties=species:S:1:pos:R:3 2c24 h20 p=T pbc="F F F" h12=T v,=T c6=T o=T s4=T
V      -0.23057020       0.08835310       0.33174502 
S      -1.44765741       0.79063415      -1.59529395 
S       1.84865936      -0.95127417       0.94960008 
S       1.02223195       2.12330812      -0.15777689 
S      -0.71287527      -2.21454907      -0.07257123 
O      -1.06985057       0.50111791       1.65318514 
C      -3.04185169      -0.08806898      -1.80321611 
H      -3.75828808       0.52755332      -1.58345256 
H      -3.13874780      -0.32255286      -2.74048952 
C      -3.23198390      -1.35592289      -0.97261123 
H      -3.25672642      -1.11687015      -0.03280777 
H      -4.08536747      -1.75744647      -1.19950139 
C      -2.12825366      -2.38064084      -1.19626270 
H      -1.81093097      -2.30011558      -2.10835757 
H      -2.50391867      -3.26924873      -1.09274375 
C       2.61684206       0.36893787       1.94891949 
C       2.81259215       1.76352506      -0.19212824 
C       3.42485167       1.37767948       1.14635732 
H       1.91897165       0.84129065       2.42749992 
H       3.19920886      -0.04035629       2.60857828 
H       2.96876964       1.04056854      -0.82187018 
H       3.27727737       2.54568394      -0.52781968 
H       3.53384119       2.18042913       1.67835775 
H       4.30739846       1.01076907       0.98790868 
