24
Properties=species:S:1:pos:R:3 2c24 h20 p=T pbc="F F F" h12=T v,=T c6=T o=T s4=T
V      -0.23319940       0.26325962       0.21756851 
S       2.03604441       0.61397077       0.86217179 
S      -1.56618452      -1.08727860      -1.26059335 
S       0.04011186      -1.70032781       1.63876950 
S       0.07244967       1.39348414      -1.86296492 
O      -1.18073469       1.21945091       1.11692685 
C       2.64195181       2.30147134       0.48531071 
H       2.71758635       2.78985358       1.31977469 
H       3.53502684       2.22647419       0.11161912 
C       1.79118326       3.12978676      -0.47572763 
H       0.93399620       3.31341899      -0.06039825 
H       2.23156894       3.97910005      -0.63601246 
C       1.55852845       2.43382556      -1.80981798 
H       2.32996769       1.88270791      -2.01043174 
H       1.49008703       3.10820255      -2.50407715 
C      -2.61987487      -1.97842807      -0.06589964 
C      -0.51962003      -3.19679505       0.75372738 
C      -2.01326841      -3.26587941       0.47172741 
H      -2.80876923      -1.38960731       0.68028299 
H      -3.46483611      -2.18902798      -0.49428112 
H      -0.04401677      -3.24984833      -0.09162422 
H      -0.26986298      -3.97473276       1.27605672 
H      -2.47109469      -3.50485558       1.29184671 
H      -2.17405782      -3.97443885      -0.16913791 
