24
Properties=species:S:1:pos:R:3 2c24 h20 p=T pbc="F F F" h12=T v,=T c6=T o=T s4=T
V      -0.35584511       0.02639875       0.20904786 
S       1.36340472       0.91166944       1.60491854 
S      -0.67890174      -0.93620772      -1.97149989 
S       0.65851513      -2.08058467       0.90322442 
S      -0.38535725       1.97479169      -1.17020634 
O      -1.74868399       0.03510168       1.03421115 
C       1.11810553       2.67897420       2.02117378 
H       0.84629788       2.73671769       2.95034235 
H       1.97380970       3.13086864       1.94108158 
C       0.09651170       3.43991944       1.17807436 
H      -0.78567499       3.07160765       1.34264051 
H       0.08688785       4.36929187       1.45581183 
C       0.39317574       3.37266770      -0.31382208 
H       1.35274856       3.31581032      -0.43663209 
H       0.09183195       4.19685097      -0.72780060 
C      -1.30605583      -2.59340100      -1.53321692 
C       1.00441036      -3.12049489      -0.55792470 
C      -0.22270989      -3.63487668      -1.29607738 
H      -1.84503894      -2.51873742      -0.73128049 
H      -1.88469273      -2.90495292      -2.24731583 
H       1.54480422      -2.60627002      -1.18016235 
H       1.53385184      -3.88216675      -0.27518574 
H      -0.60339003      -4.36735052      -0.78826355 
H       0.05830918      -3.98908930      -2.15292029 
