24
Properties=species:S:1:pos:R:3 2c24 h20 p=T pbc="F F F" h12=T v,=T c6=T o=T s4=T
V      -0.07756943      -0.23615331       0.33051209 
S       1.35537306      -1.47679103      -1.11706279 
S      -1.17982114       1.89605342       0.48703984 
S      -1.73310796      -0.88169483      -1.34061184 
S       1.70718271       1.16775096       1.06750654 
O      -0.47073224      -1.16891985       1.59397555 
C       2.97313209      -1.88254706      -0.35875944 
H       2.98050886      -2.82928772      -0.14853188 
H       3.66586896      -1.72755173      -1.02128873 
C       3.34273974      -1.11091666       0.90673847 
H       2.72447575      -1.35085694       1.61467014 
H       4.23308633      -1.37347383       1.18835969 
C       3.31145535       0.39852322       0.70950799 
H       3.55196876       0.59610396      -0.20821212 
H       3.98309906       0.80057842       1.28284096 
C      -2.93092197       1.38267071       0.52932301 
C      -2.67105752       0.58527005      -1.89222600 
C      -3.57192248       1.21537180      -0.84022970 
H      -2.99597201       0.54183172       1.00675129 
H      -3.43593763       2.04350246       1.02940609 
H      -2.03935498       1.25663675      -2.19857727 
H      -3.21746870       0.33312295      -2.65265368 
H      -4.36555704       0.66718860      -0.74562766 
H      -3.85492888       2.08595920      -1.15740949 
