24
Properties=species:S:1:pos:R:3 2c24 h20 p=T pbc="F F F" h12=T v,=T c6=T o=T s4=T
V       0.25519464       0.07855772       0.31579744 
S       1.56095641       0.08377910      -1.67993253 
S      -2.01207876      -0.21872532       1.06202760 
S       0.37219344      -2.33200844      -0.03870072 
S      -0.68864849       2.21685485      -0.17030306 
O       1.24178664       0.29650440       1.58075033 
C       2.35216638       1.70054092      -2.02180120 
H       3.30158991       1.61747934      -1.84218034 
H       2.25218321       1.89285117      -2.96830694 
C       1.82135838       2.89667415      -1.23375524 
H       2.02361529       2.77012215      -0.29350757 
H       2.27879328       3.69892600      -1.53058704 
C       0.32049883       3.09391300      -1.39747692 
H       0.06321221       2.79340427      -2.28211987 
H       0.12386745       4.04233683      -1.34009502 
C      -1.83651442      -1.67980760       2.14189774 
C      -1.30056853      -3.06000126       0.05022273 
C      -1.95838317      -3.01425733       1.42152485 
H      -0.97193388      -1.64084605       2.57797339 
H      -2.51586123      -1.63769694       2.83366152 
H      -1.87268652      -2.59364232      -0.58130145 
H      -1.24889243      -3.98559701      -0.23437471 
H      -1.56223047      -3.70293242       1.97659226 
H      -2.89832827      -3.22610388       1.32032050 
