24
Properties=species:S:1:pos:R:3 2c24 h20 p=T pbc="F F F" h12=T v,=T c6=T o=T s4=T
V      -0.03265743      -0.41194648      -0.01603843 
S       2.22355037       0.14988763      -0.54693200 
S      -2.12283657       0.61981748       0.57757727 
S      -0.38790501       0.36415314      -2.30113261 
S       0.29520763       0.02112166       2.30869912 
O      -0.21406171      -2.01454858      -0.15649966 
C       3.43732920      -0.52915154       0.64573432 
H       3.90853748      -1.25978539       0.21596130 
H       4.09070027       0.16233635       0.84016611 
C       2.87478591      -1.03954393       1.97108443 
H       2.31124299      -1.81012224       1.79898738 
H       3.60875034      -1.32852240       2.53566524 
C       2.06411265       0.01344400       2.71426180 
H       2.43206493       0.88698053       2.51266791 
H       2.16304750      -0.13457637       3.66807846 
C      -3.17863858       0.09987848      -0.81764648 
C      -1.74955871       1.58070863      -2.34478423 
C      -3.12938807       1.02516282      -2.02428167 
H      -2.90848113      -0.78799282      -1.09671457 
H      -4.09653736       0.04308875      -0.50771217 
H      -1.54862085       2.28974928      -1.71191949 
H      -1.77731827       1.97996833      -3.22808186 
H      -3.45447220       0.54148917      -2.79867840 
H      -3.73271196       1.76722980      -1.86950782 
