24
Properties=species:S:1:pos:R:3 2c24 h20 p=T pbc="F F F" h12=T v,=T c6=T o=T s4=T
V       0.09357544       0.37883700      -0.13692994 
S       1.52484018      -0.08917561       1.71250906 
S      -1.66667304      -0.62241304      -1.43492414 
S      -1.52475187       0.71071441       1.65780151 
S       1.33222312      -1.05106651      -1.59314973 
O       0.37580278       1.89139242      -0.64041199 
C       3.30149873      -0.10640511       1.26530245 
H       3.71271694       0.69445369       1.62598610 
H       3.71681018      -0.86738847       1.70265094 
C       3.62595682      -0.17808646      -0.22570292 
H       3.31980578       0.63619521      -0.65489502 
H       4.58814439      -0.22918121      -0.33772183 
C       2.98371764      -1.37480793      -0.91394261 
H       2.91944394      -2.10139755      -0.27595243 
H       3.56388505      -1.66663616      -1.63484927 
C      -3.03659855       0.54338176      -1.12519785 
C      -3.04498396      -0.24159636       1.31427257 
C      -3.85638838       0.23629855       0.11906488 
H      -2.67052749       1.43687006      -1.04243243 
H      -3.62770508       0.53895111      -1.89487048 
H      -2.79961417      -1.17009658       1.16828128 
H      -3.61118661      -0.21175012       2.10098559 
H      -4.34122801       1.03541982       0.37527946 
H      -4.51046698      -0.44342773      -0.10177766 
