24
Properties=species:S:1:pos:R:3 2c24 h20 p=T pbc="F F F" h12=T v,=T c6=T o=T s4=T
V      -0.17241234      -0.24679930      -0.28352730 
S       2.02815935      -1.06476435       0.13646862 
S      -1.67640637       1.50082910       0.40171883 
S       1.07579669       1.42818454      -1.54312653 
S      -1.00362098      -1.11734509       1.77819296 
O      -0.84244667      -1.14095578      -1.45506840 
C       2.04914051      -2.76333625       0.82292292 
H       2.35745014      -3.36691139       0.12922979 
H       2.70089511      -2.79160125       1.54213779 
C       0.72201913      -3.29484631       1.36121107 
H       0.09612894      -3.38440776       0.62552829 
H       0.86461245      -4.17688379       1.73888933 
C       0.11215367      -2.39358080       2.42613920 
H       0.82926429      -1.96015296       2.91295304 
H      -0.37935316      -2.94499110       3.05529106 
C      -1.92480559       2.38699778      -1.17457641 
C       0.53274321       3.10502224      -1.06425096 
C      -0.89125969       3.46612240      -1.46061511 
H      -1.90854957       1.74267357      -1.89829013 
H      -2.80511646       2.79539986      -1.16546466 
H       0.61512232       3.19114943      -0.10018238 
H       1.13562424       3.75002396      -1.46537544 
H      -0.90616476       3.66536244      -2.40897760 
H      -1.14793060       4.27261144      -0.98911375 
