24
Properties=species:S:1:pos:R:3 2c24 h20 p=T pbc="F F F" h12=T v,=T c6=T o=T s4=T
V      -0.08869346      -0.20954772      -0.34532139 
S       1.86727441      -1.18854758       0.60532477 
S      -1.67645840       1.55267192       0.05386493 
S       1.52191069       1.49797088      -1.00903923 
S      -1.51293475      -1.21453388       1.28593204 
O      -0.41105776      -0.95297052      -1.74688272 
C       1.63692510      -2.94091207       1.08798832 
H       2.11762792      -3.49567569       0.45416654 
H       2.04790511      -3.07227883       1.95786831 
C       0.19552202      -3.44138917       1.16139191 
H      -0.18931158      -3.42716056       0.27106074 
H       0.19552785      -4.36092670       1.47028441 
C      -0.67365626      -2.60699220       2.09230443 
H      -0.11872255      -2.26199287       2.80792940 
H      -1.34380800      -3.18396939       2.49162675 
C      -1.42580942       2.59158133      -1.42584657 
C       0.91088554       3.15289413      -0.53586817 
C      -0.32313759       3.63052649      -1.28709141 
H      -1.21655086       2.01597127      -2.17688811 
H      -2.25789065       3.04780220      -1.62913417 
H       0.70925911       3.14596646       0.41435876 
H       1.62326623       3.79569794      -0.67626265 
H      -0.05340894       3.91581250      -2.17318877 
H      -0.68345662       4.40425484      -0.82868908 
