24
Properties=species:S:1:pos:R:3 2c24 h20 p=T pbc="F F F" h12=T v,=T c6=T o=T s4=T
V       0.01630812       0.38610013      -0.14725617 
S      -2.08566273      -0.53881308      -0.79086572 
S       2.01602377      -0.18634715       1.06072014 
S       0.79778588      -1.04263757      -1.96334757 
S      -0.69050783       0.69146229       2.11252554 
O       0.14678680       1.86853095      -0.78470774 
C      -3.51757833       0.36218775      -0.08757244 
H      -3.93947586       0.86533568      -0.80130388 
H      -4.16288383      -0.29195853       0.22631677 
C      -3.21745064       1.32438722       1.06029680 
H      -2.66796633       2.05121641       0.72746762 
H      -4.05062143       1.70440224       1.38026378 
C      -2.50148424       0.65211876       2.22379779 
H      -2.78898975      -0.27205494       2.27215682 
H      -2.77118674       1.08771906       3.04779858 
C       3.27356436      -0.03889405      -0.25402434 
C       2.19985376      -2.06640361      -1.39578941 
C       3.47650964      -1.30247803      -1.07665058 
H       3.01617203       0.68079072      -0.84982841 
H       4.12015273       0.20574820       0.15249849 
H       1.92426591      -2.55119225      -0.60038778 
H       2.39863375      -2.72311049      -2.08107490 
H       3.90899186      -1.06296144      -1.91025787 
H       4.07666422      -1.89144095      -0.59544873 
