24
Properties=species:S:1:pos:R:3 2c24 h20 p=T pbc="F F F" h12=T v,=T c6=T o=T s4=T
V       0.34646050       0.06192118       0.21715094 
S      -1.40983180       1.24285769       1.31660784 
S       0.73836596      -1.34569984      -1.69355010 
S       0.18164638       1.95664607      -1.31027853 
S      -0.43025229      -2.04951468       1.01590249 
O       1.73517137       0.35694057       0.99523578 
C      -1.73068731       0.64194821       3.01742110 
H      -1.39597788       1.30472392       3.64133286 
H      -2.69192463       0.58559120       3.14271946 
C      -1.12189113      -0.70960398       3.38644975 
H      -0.15494257      -0.63234299       3.38095806 
H      -1.39596003      -0.94448951       4.28682682 
C      -1.53714657      -1.82460328       2.43638302 
H      -2.42883818      -1.63534435       2.10750284 
H      -1.57726975      -2.65705557       2.93325088 
C       1.93014964      -0.33365782      -2.63542398 
C       0.05114737       1.36305184      -3.03266915 
C       1.29290171       0.67460292      -3.57981296 
H       2.49541351       0.14285302      -2.00885103 
H       2.49957040      -0.92569231      -3.15221956 
H      -0.69440275       0.74281984      -3.08834424 
H      -0.15726074       2.11867457      -3.60362795 
H       1.95023314       1.35248057      -3.79823334 
H       1.05717503       0.22104853      -4.40281929 
