24
Properties=species:S:1:pos:R:3 2c24 h20 p=T pbc="F F F" h12=T v,=T c6=T o=T s4=T
V       0.37200491       0.07676002       0.16353559 
S       0.06700778      -2.28858595       0.15382279 
S      -0.75499725       2.10656286      -0.46537765 
S      -1.15553390      -0.09242124       2.05778735 
S       0.78387680       0.13948081      -2.18718257 
O       1.78437692       0.41387324       0.87944782 
C       1.29677865      -3.17171520      -0.87794877 
H       1.91728722      -3.62653287      -0.28745921 
H       0.83045397      -3.85332028      -1.38864318 
C       2.10582144      -2.31674878      -1.85159677 
H       2.66847170      -1.70942751      -1.34605299 
H       2.68536146      -2.89407676      -2.37293122 
C       1.22913565      -1.50985418      -2.79955797 
H       0.41516997      -2.00791566      -2.96834683 
H       1.69469092      -1.41154269      -3.64516869 
C      -0.90908171       2.93722052       1.15263645 
C      -2.53598447       1.08647061       1.85633319 
C      -2.15382793       2.55690510       1.94036243 
H      -0.12808520       2.72489238       1.68568494 
H      -0.91404102       3.89704762       1.00935399 
H      -2.95398038       0.92586977       0.99428955 
H      -3.19975847       0.90264775       2.53898012 
H      -2.01289746       2.78606927       2.87145456 
H      -2.89744070       3.08807422       1.61862109 
