24
Properties=species:S:1:pos:R:3 2c24 h20 p=T pbc="F F F" h12=T v,=T c6=T o=T s4=T
V       0.16150241       0.13522863       0.35588457 
S      -0.77801325       2.01809454      -0.76665962 
S       0.45496778      -2.23788872       0.09519815 
S       1.90472850       0.45616649      -1.31992824 
S      -1.98548083      -0.68258101       1.00480564 
O       0.87990183       0.64706798       1.71341657 
C      -2.13777307       2.81309505       0.16920021 
H      -1.81077019       3.65488083       0.52280133 
H      -2.85411231       3.01907004      -0.45312236 
C      -2.72781852       2.00800723       1.32556875 
H      -2.05078686       1.89809881       2.01152590 
H      -3.46519550       2.50513277       1.71300291 
C      -3.22814445       0.63557896       0.89614827 
H      -3.54056485       0.69224090      -0.01942694 
H      -3.98625577       0.39374530       1.45134918 
C       2.27570291      -2.36583482       0.07916169 
C       2.26187162      -1.12440358      -2.16269783 
C       2.90754036      -2.19392964      -1.29407364 
H       2.63899636      -1.69247171       0.67395533 
H       2.52874287      -3.23442183       0.43037373 
H       1.42994549      -1.47778353      -2.51858261 
H       2.84669515      -0.94647442      -2.91550342 
H       3.84412109      -1.97314601      -1.17839609 
H       2.86325335      -3.04065199      -1.76281450 
