24
Properties=species:S:1:pos:R:3 2c24 h20 p=T pbc="F F F" h12=T v,=T c6=T o=T s4=T
V       0.26562008       0.31611058       0.02331769 
S       1.51729276      -1.69460349       0.30318122 
S      -1.98537300       1.07648063      -0.35169282 
S      -0.36846940      -0.17968693       2.32599054 
S       0.03280773      -0.03106557      -2.32715360 
O       1.26575768       1.57720535       0.19748750 
C       2.77193953      -1.95323339      -1.00669598 
H       3.64813204      -1.79249380      -0.62326751 
H       2.74051764      -2.88540283      -1.27674369 
C       2.63446687      -1.08934050      -2.25901328 
H       2.78352934      -0.16107065      -2.02008984 
H       3.31921806      -1.34557694      -2.89652606 
C       1.26928423      -1.21959467      -2.92052483 
H       0.93534851      -2.11641042      -2.76787001 
H       1.37592815      -1.10429448      -3.87802015 
C      -2.27575694       2.06686544       1.15380340 
C      -2.18483598      -0.10909467       2.50443579 
C      -2.80198304       1.27191243       2.33941758 
H      -1.44352579       2.49192438       1.41050494 
H      -2.91158849       2.76965629       0.94493551 
H      -2.58160011      -0.70407944       1.84701371 
H      -2.42125422      -0.44777801       3.38181462 
H      -2.64107491       1.78018762       3.14878466 
H      -3.76086930       1.17215369       2.24348323 
