24
Properties=species:S:1:pos:R:3 2c24 h20 p=T pbc="F F F" h12=T v,=T c6=T o=T s4=T
V      -0.11101654      -0.35544532       0.17988217 
S      -1.35675665      -0.15615396      -1.84407280 
S       1.54832765       0.81109796       1.47275453 
S      -1.74256070       1.29642490       0.92792982 
S       1.89099312      -0.93341318      -0.98517521 
O      -0.58826887      -1.69605416       0.95187212 
C      -1.00488537      -1.49505801      -3.04420977 
H      -1.77003943      -2.09052745      -3.06708643 
H      -0.92089354      -1.09735686      -3.92604431 
C       0.24371287      -2.33418436      -2.77892189 
H       0.12068604      -2.83150101      -1.95519287 
H       0.35294934      -2.97477672      -3.49911121 
C       1.50861779      -1.49389530      -2.66839055 
H       1.41537320      -0.71696633      -3.24003893 
H       2.25732093      -2.01473031      -2.99950810 
C       0.63294109       1.11835834       3.02174203 
C      -0.88965501       2.70909977       1.71081879 
C      -0.18833336       2.39899973       3.02507449 
H       0.03993493       0.36946809       3.18510228 
H       1.26756869       1.15508095       3.75503718 
H      -0.23221082       3.05607399       1.08551210 
H      -1.53907373       3.41187595       1.86815468 
H      -0.85690285       2.33610957       3.72390911 
H       0.39549608       3.13995801       3.24585054 
