24
Properties=species:S:1:pos:R:3 2c24 h20 p=T pbc="F F F" h12=T v,=T c6=T o=T s4=T
V       0.37100486       0.18151566       0.02076305 
S      -0.52379220       0.12353473       2.23073038 
S      -0.17208314      -0.46891244      -2.23040643 
S      -1.23858309       2.00108584      -0.19964088 
S       0.89771573      -2.14668940       0.05929927 
O       1.78661604       0.96624433       0.05563765 
C       0.48950760      -0.86346313       3.39514652 
H       0.94508568      -0.25180101       3.99421746 
H      -0.10952612      -1.40483023       3.93452881 
C       1.53493072      -1.78649415       2.77175861 
H       2.20840249      -1.24693228       2.32870363 
H       1.97322349      -2.28902446       3.47626309 
C       0.93844908      -2.76185522       1.76619024 
H       0.03376904      -2.97499033       2.04045742 
H       1.45376767      -3.58371667       1.78751762 
C      -0.18771858       1.15220886      -3.06911081 
C      -2.26311045       1.75366434      -1.69133114 
C      -1.52458742       1.87643808      -3.01601693 
H       0.48722936       1.71737057      -2.66387385 
H       0.05809918       1.02278139      -3.99897353 
H      -2.66628454       0.87112443      -1.64435873 
H      -2.98380091       2.40242243      -1.68075754 
H      -1.37497306       2.81623734      -3.19960089 
H      -2.09260791       1.52867600      -3.71960227 
