24
Properties=species:S:1:pos:R:3 2c24 h20 p=T pbc="F F F" h12=T v,=T c6=T o=T s4=T
V       0.22983081      -0.29219481       0.18117294 
S       0.00649412       1.50759297       1.72999954 
S      -0.44323321      -0.94200527      -2.03479107 
S       1.81764907       1.25343919      -0.83864840 
S      -2.00541746      -1.03834643       0.56375777 
O       1.19892427      -1.41566452       0.82897230 
C      -0.85663450       1.02972300       3.27384393 
H      -0.20081083       0.98677221       3.98701886 
H      -1.48511945       1.73439345       3.50033719 
C      -1.61626122      -0.29528634       3.24510787 
H      -0.98136889      -1.02089630       3.13837985 
H      -2.06851432      -0.41885706       4.09432000 
C      -2.64335931      -0.36405737       2.12322224 
H      -2.98298834       0.52856209       1.95897345 
H      -3.38776727      -0.91273476       2.41694705 
C       1.17715629      -1.10604730      -2.85888565 
C       1.46309743       1.42955124      -2.62170511 
C       1.71164557       0.18486054      -3.46090173 
H       1.82063200      -1.43710117      -2.21427582 
H       1.10099296      -1.76868534      -3.56382004 
H       0.53316646       1.69034285      -2.72586156 
H       2.00747794       2.15063169      -2.97396418 
H       2.66654395       0.09064427      -3.59729294 
H       1.30401707       0.31229705      -4.33050912 
