24
Properties=species:S:1:pos:R:3 2c24 h20 p=T pbc="F F F" h12=T v,=T c6=T o=T s4=T
V       0.00029824       0.33637556      -0.24057232 
S       2.13976653       0.20007927       0.80445299 
S      -2.10088872      -0.82926249      -0.35042066 
S      -0.63836596       1.11809783       1.98005940 
S       0.51513567      -1.42733473      -1.76494649 
O      -0.06003027       1.69297794      -1.12202611 
C       3.51581182       0.00224847      -0.38893234 
H       4.00217513       0.84017425      -0.43251041 
H       4.12521589      -0.66859519      -0.04043779 
C       3.12896112      -0.39826868      -1.81140934 
H       2.61739135       0.32100751      -2.21381097 
H       3.93573314      -0.51870283      -2.33636493 
C       2.30954155      -1.68053407      -1.86273507 
H       2.58229170      -2.25206906      -1.12921604 
H       2.51255655      -2.14588446      -2.68959556 
C      -3.24024489       0.44101000       0.29763729 
C      -2.09422230       0.19000357       2.57599304 
C      -3.38544387       0.44382314       1.81205286 
H      -2.92558391       1.31290377       0.01484903 
H      -4.11581072       0.30303987      -0.09754777 
H      -1.89244206      -0.75922487       2.53260484 
H      -2.24068568       0.41280296       3.50835698 
H      -3.74282537       1.30168539       2.08711832 
H      -4.03048392      -0.23448941       2.06191981 
