24
Properties=species:S:1:pos:R:3 2c24 h20 p=T pbc="F F F" h12=T v,=T c6=T o=T s4=T
V      -0.20417758      -0.18977823      -0.30548221 
S      -0.91319305      -1.17139623       1.74919595 
S       1.27085859       1.51235721      -1.14973842 
S       1.76100655      -1.56881297       0.12637586 
S      -1.49298679       1.78428783       0.07065895 
O      -0.92140087      -0.97222685      -1.52791227 
C      -2.70093325      -0.94438471       2.07973635 
H      -3.14423473      -1.79687708       1.94817465 
H      -2.80821101      -0.70329266       3.01419827 
C      -3.42089870       0.10253584       1.23172964 
H      -3.42421757      -0.18863467       0.30642014 
H      -4.34296039       0.16788890       1.52583007 
C      -2.77566213       1.47896880       1.31769113 
H      -2.38330804       1.58279390       2.19767617 
H      -3.46742207       2.15267682       1.22255942 
C       2.40475298       0.51563800      -2.17567122 
C       3.27749249      -0.56146050      -0.02033794 
C       3.59378551      -0.06145727      -1.42220727 
H       1.90449933      -0.21419067      -2.57098866 
H       2.73609613       1.07005869      -2.89999982 
H       3.19462207       0.20636929       0.56890085 
H       4.02850211      -1.08827973       0.29404980 
H       3.95884719      -0.79712181      -1.93683124 
H       4.28005633       0.61952374      -1.35963500 
