24
Properties=species:S:1:pos:R:3 2c24 h20 p=T pbc="F F F" h12=T v,=T c6=T o=T s4=T
V      -0.41163698      -0.03928004      -0.00597661 
S       0.16813818       1.13269342       1.98859556 
S       0.60110228      -1.03152877      -1.94905843 
S       0.40971048      -1.93339767       1.29321299 
S      -0.02496944       1.88004216      -1.37204348 
O      -2.01161911      -0.28614971      -0.01508016 
C      -0.53115694       2.82455636       2.06202810 
H      -1.25136665       2.82701620       2.71153548 
H       0.15832077       3.42349729       2.39179049 
C      -1.07024814       3.39419527       0.75115036 
H      -1.83896602       2.87221253       0.47259015 
H      -1.36831041       4.30502850       0.90116886 
C      -0.03522785       3.39014694      -0.36554295 
H       0.84341141       3.50758551       0.02598774 
H      -0.20233092       4.14906932      -0.94655734 
C       0.10630817      -2.77705236      -1.74898355 
C       1.62252418      -2.88553667       0.31416866 
C       1.05613632      -3.60798308      -0.89932137 
H      -0.77482140      -2.80527532      -1.34649924 
H       0.04026890      -3.18344652      -2.62779248 
H       2.31916605      -2.27884317       0.01375970 
H       2.03960501      -3.54116118       0.89433561 
H       0.58729828      -4.39995460      -0.59554154 
H       1.79295498      -3.90083456      -1.45605679 
