24
Properties=species:S:1:pos:R:3 2c24 h20 p=T pbc="F F F" h12=T v,=T c6=T o=T s4=T
V      -0.01229715      -0.05916894       0.40911057 
S       2.05053926      -0.95598676      -0.38360810 
S      -1.98864835       1.05930426      -0.38387047 
S      -0.87499668      -2.11630011      -0.57787867 
S       0.76457881       2.18892630       0.20422099 
O      -0.12937531      -0.35445706       1.99658277 
C       3.52056289      -0.12017829       0.32155923 
H       3.93262225      -0.72065277       0.96203203 
H       4.16051132       0.02296310      -0.39456194 
C       3.27352113       1.21852887       1.01462616 
H       2.73033590       1.06962395       1.80441479 
H       4.12328266       1.58641886       1.30363505 
C       2.57674225       2.23048365       0.11532976 
H       2.84587352       2.06741782      -0.80122518 
H       2.87884820       3.12034685       0.35686616 
C      -3.27953769      -0.15063482       0.06485650 
C      -2.28177673      -1.74000452      -1.68032370 
C      -3.53241763      -1.22135892      -0.98592741 
H      -3.02395468      -0.58367180       0.89331034 
H      -4.10889713       0.32645971       0.22723339 
H      -1.99408416      -1.07837225      -2.33079135 
H      -2.51375444      -2.54491468      -2.16889262 
H      -3.98318145      -1.96853467      -0.56420410 
H      -4.13102862      -0.86063436      -1.65686759 
