24
Properties=species:S:1:pos:R:3 2c24 h20 p=T pbc="F F F" h12=T v,=T c6=T o=T s4=T
V       0.12477922      -0.18110562       0.35022071 
S      -0.79058893      -1.88118078      -1.04971671 
S       0.55401092       2.18551650       0.37522507 
S      -2.23920691       0.32312108       0.67811081 
S       2.12816806      -0.04846667      -0.94140162 
O       0.54255996      -0.84553351       1.76618863 
C       0.42859686      -3.16623988      -1.51770747 
H       0.21924275      -3.97595413      -1.02668648 
H       0.31489979      -3.36246142      -2.46185951 
C       1.89845609      -2.82863878      -1.27471039 
H       2.05009539      -2.74762397      -0.32002140 
H       2.44849647      -3.55754341      -1.60199842 
C       2.32977162      -1.53819106      -1.95808359 
H       1.81357278      -1.43068462      -2.77114950 
H       3.26329308      -1.61750187      -2.21049561 
C      -0.47414492       2.71290156       1.78818803 
C      -2.54359836       2.10323927       0.40509321 
C      -1.91748785       3.03568170       1.43165001 
H      -0.46944470       2.00932846       2.45462804 
H      -0.07053429       3.49912457       2.18915481 
H      -2.20550545       2.34159659      -0.47383307 
H      -3.50150691       2.25407539       0.39779490 
H      -2.45026543       3.00576911       2.24070098 
H      -1.95631148       3.94151734       1.09022275 
