24
Properties=species:S:1:pos:R:3 2c24 h20 p=T pbc="F F F" h12=T v,=T c6=T o=T s4=T
V       0.12087244       0.19937354      -0.34156067 
S      -1.86648061      -1.00452602      -0.87917845 
S       1.60418235       0.62417939       1.50372982 
S       1.09101966      -2.03263291      -0.50632858 
S      -1.08900857       1.86598847       0.86592879 
O       0.66826308       0.92093036      -1.68345842 
C      -3.25420488       0.07990684      -1.38418628 
H      -3.38082273      -0.01544301      -2.34097480 
H      -4.06231632      -0.24065999      -0.95169837 
C      -3.10321176       1.56713427      -1.06975997 
H      -2.36853918       1.92699994      -1.59104860 
H      -3.91227089       2.03054253      -1.33741636 
C      -2.84441570       1.83634283       0.40632901 
H      -3.29003051       1.15252444       0.92874158 
H      -3.24082052       2.69048731       0.64034774 
C       3.16791884      -0.06439945       0.86163080 
C       2.09642783      -2.38949373       0.97617549 
C       3.35725415      -1.55077829       1.12502270 
H       3.20410148       0.08794581      -0.09474842 
H       3.90764245       0.41841415       1.26352945 
H       1.54260132      -2.25493055       1.76281480 
H       2.35090246      -3.32506236       0.95753082 
H       4.02759244      -1.89061669       0.51308592 
H       3.69914591      -1.66416366       2.02439572 
