24
Properties=species:S:1:pos:R:3 2c24 h20 p=T pbc="F F F" h12=T v,=T c6=T o=T s4=T
V      -0.30778112      -0.09640791       0.25884347 
S       1.67422884      -1.13635567       1.08232653 
S      -1.07039387       1.30530817      -1.54098406 
S      -0.18659939      -1.94090351      -1.33280281 
S       0.38480441       2.06083741       1.01121712 
O      -1.54976553      -0.52778851       1.20348935 
C       2.16657295      -0.54032386       2.74339533 
H       1.97617629      -1.24145831       3.38583407 
H       3.12753730      -0.40103894       2.74294350 
C       1.49893832       0.74483442       3.22933818 
H       0.55011904       0.58204618       3.34863160 
H       1.86960152       0.98674393       4.09250236 
C       1.68657446       1.90941578       2.26661794 
H       2.53929137       1.80617249       1.81794240 
H       1.72118748       2.73296909       2.77850292 
C      -2.28610177       0.20863177      -2.34786631 
C      -0.33853462      -1.30684740      -3.03893940 
C      -1.69659468      -0.72166263      -3.39742761 
H      -2.71973871      -0.32754679      -1.66694705 
H      -2.96802807       0.75700732      -2.76748909 
H       0.33699982      -0.62189401      -3.17356670 
H      -0.14423638      -2.03045081      -3.65460158 
H      -2.31667668      -1.45120011      -3.54770586 
H      -1.61257739      -0.23406538      -4.23037903 
