24
Properties=species:S:1:pos:R:3 2c24 h20 p=T pbc="F F F" h12=T v,=T c6=T o=T s4=T
V       0.04485916       0.04690017      -0.40842585 
S       1.90417453       1.10700988       0.64375898 
S      -1.95052098      -1.18462253       0.12783459 
S      -1.08688013       2.06511981       0.36367683 
S       0.92707969      -2.13498201      -0.00776980 
O       0.14621444       0.28955349      -2.00586655 
C       3.51389776       0.35682032       0.19341138 
H       3.97671181       0.96677162      -0.40184529 
H       4.04817101       0.27844663       1.00041984 
C       3.46020540      -1.01440909      -0.47767377 
H       3.03199304      -0.92555634      -1.34354230 
H       4.36559060      -1.32987122      -0.62506820 
C       2.70470057      -2.04744765       0.34714810 
H       2.82336448      -1.84086076       1.28647540 
H       3.09655623      -2.92034598       0.18602078 
C      -3.23620524      -0.08056110      -0.55022744 
C      -2.61449780       1.62195658       1.26145418 
C      -3.71158575       0.99836540       0.41126939 
H      -2.88895592       0.34633287      -1.34794853 
H      -3.99941411      -0.61868185      -0.81435016 
H      -2.38434820       1.00015373       1.97140123 
H      -2.96836973       2.42182700       1.68023284 
H      -4.14222114       1.70037079      -0.09966287 
H      -4.37859140       0.61529972       1.00032136 
