24
Properties=species:S:1:pos:R:3 2c24 h20 p=T pbc="F F F" h12=T v,=T c6=T o=T s4=T
V      -0.34623336      -0.22603909       0.00724108 
S      -0.23074364       0.97517860       2.06435491 
S       0.86699354      -0.52972655      -2.04741698 
S       1.34812757      -1.58484429       1.11763577 
S      -0.98902820       1.72094754      -1.21566776 
O      -1.64749542      -1.18857898       0.04194505 
C      -1.62476191       2.14047555       2.30015638 
H      -2.21577342       1.77343341       2.97584373 
H      -1.26788747       2.97341185       2.64902703 
C      -2.45896527       2.46116932       1.06129864 
H      -2.91773035       1.65665807       0.77270689 
H      -3.13215216       3.11925914       1.29518118 
C      -1.62260730       2.99776242      -0.09233064 
H      -0.87174554       3.49015223       0.27216070 
H      -2.16263874       3.62077368      -0.60388450 
C       1.24980712      -2.31264704      -1.96771709 
C       2.78930153      -1.81026662       0.01844700 
C       2.53449163      -2.64887978      -1.22537051 
H       0.51286066      -2.76882289      -1.53413552 
H       1.31561125      -2.65655751      -2.87282367 
H       3.10345155      -0.93425228      -0.26001501 
H       3.50259374      -2.22558964       0.52748003 
H       2.50752511      -3.58269702      -0.96736208 
H       3.28094371      -2.53549882      -1.83247192 
