24
Properties=species:S:1:pos:R:3 2c24 h20 p=T pbc="F F F" h12=T v,=T c6=T o=T s4=T
V       0.03989523      -0.40738284       0.05891719 
S      -1.78382018       0.33660506       1.40373065 
S       1.67303325       0.42655787      -1.49773577 
S       1.32287202       0.64332978       1.84781641 
S      -1.24539972      -0.26778350      -1.94806490 
O       0.27740245      -1.98478769       0.33524055 
C      -3.38264074      -0.42926498       0.94110541 
H      -3.62121463      -1.07129123       1.62772956 
H      -4.06274767       0.26377240       0.94369824 
C      -3.43003313      -1.13848431      -0.41103001 
H      -2.84007987      -1.90806233      -0.38469051 
H      -4.33153687      -1.46056575      -0.56761350 
C      -3.01944927      -0.23637855      -1.56684721 
H      -3.27483821       0.67412371      -1.35505210 
H      -3.51177563      -0.50337862      -2.35917926 
C       3.22478660       0.04048661      -0.61755720 
C       2.56440609       1.78220898       1.14243647 
C       3.68331578       1.11795239       0.35371191 
H       3.10584797      -0.78754737      -0.12827935 
H       3.92547491      -0.10451848      -1.27317289 
H       2.10829123       2.41122822       0.55940434 
H       2.96024510       2.29234267       1.86594784 
H       4.30990501       0.72418241       0.97952443 
H       4.15793864       1.80061781      -0.14359999 
