24
Properties=species:S:1:pos:R:3 2c24 h20 p=T pbc="F F F" h12=T v,=T c6=T o=T s4=T
V       0.02444338       0.32040179      -0.26032452 
S       1.86840208      -1.12029429      -0.72096568 
S      -1.88826766       0.49920051       1.18720192 
S       1.42513792       0.91524073       1.64608791 
S      -1.52415327      -1.14301757      -1.33721837 
O       0.14160232       1.62976890      -1.20520648 
C       1.84166887      -1.80816690      -2.41888289 
H       2.53439753      -1.36778000      -2.93536553 
H       2.07271578      -2.74991574      -2.36809493 
C       0.52482915      -1.68101005      -3.18260570 
H       0.34325867      -0.74198002      -3.34460482 
H       0.61512954      -2.11887238      -4.04346936 
C      -0.65285735      -2.29390819      -2.43715437 
H      -0.33137391      -3.04174002      -1.91133025 
H      -1.28481380      -2.64085065      -3.08655895 
C      -1.50668016       2.04342360       2.08245038 
C       0.45422558       0.82075397       3.19024303 
C      -0.65280465       1.85560884       3.32750758 
H      -1.04632650       2.64593087       1.47892823 
H      -2.34101963       2.46713490       2.33968354 
H       0.05766469      -0.06398638       3.25029647 
H       1.06005018       0.91834432       3.94114001 
H      -0.25189121       2.70702309       3.55918057 
H      -1.22940326       1.59547436       4.06132102 
