24
Properties=species:S:1:pos:R:3 2c24 h20 p=T pbc="F F F" h12=T v,=T c6=T o=T s4=T
V       0.40568831       0.07313182      -0.03305105 
S      -0.71341452       1.54417127      -1.54024412 
S      -0.05535243      -1.64744750       1.58336892 
S      -0.11503678      -1.54204659      -1.78525851 
S      -0.23069241       1.36745164       1.86936950 
O       2.00303829       0.27427989      -0.20329456 
C      -0.45592566       3.31497597      -1.14685321 
H       0.14347518       3.68909633      -1.81117281 
H      -1.30798543       3.77216394      -1.23531948 
C       0.11151129       3.62792867       0.23647039 
H       1.01407723       3.27716963       0.29419186 
H       0.15916588       4.59031874       0.34826589 
C      -0.72383108       3.03969197       1.36539379 
H      -1.65140205       3.01817179       1.08567244 
H      -0.66225751       3.62662513       2.13557722 
C       0.80843535      -3.07092845       0.83552105 
C      -0.91430857      -3.01598086      -1.06089954 
C      -0.02594050      -3.86202482      -0.16073628 
H       1.60472067      -2.74927070       0.38647153 
H       1.09328666      -3.66861671       1.54506386 
H      -1.68591335      -2.72586341      -0.54700230 
H      -1.24058136      -3.57519844      -1.78285201 
H       0.57056938      -4.38373529      -0.71868281 
H      -0.58509572      -4.48337980       0.32904070 
