24
Properties=species:S:1:pos:R:3 2c24 h20 p=T pbc="F F F" h12=T v,=T c6=T o=T s4=T
V       0.27885480       0.23282229      -0.19762952 
S      -0.71721807       1.58752168       1.49370355 
S       0.19266692      -1.99777077      -1.09361589 
S      -1.84914965       0.67595059      -1.30461697 
S       1.59550058      -0.96796584       1.39108064 
O       1.31371632       1.14281489      -1.04730324 
C       0.48056448       2.16993477       2.75184430 
H       0.63668665       3.11605532       2.60675913 
H       0.07109634       2.07481714       3.62713937 
C       1.83430508       1.46273846       2.77955761 
H       2.30567037       1.65076219       1.95284679 
H       2.36261672       1.81989684       3.51050805 
C       1.71050799      -0.04525725       2.94958863 
H       0.92170122      -0.23349274       3.48010378 
H       2.48118287      -0.36629720       3.44401550 
C      -0.32975467      -1.66541073      -2.81068207 
C      -2.59023241      -0.88877873      -1.88636607 
C      -1.83639402      -1.58887582      -3.00746994 
H       0.06323009      -0.82727602      -3.09751422 
H       0.02255723      -2.36541405      -3.38312787 
H      -2.65484725      -1.49739087      -1.13201296 
H      -3.49300168      -0.70736066      -2.19048567 
H      -2.01678003      -1.12309816      -3.83802532 
H      -2.18250001      -2.48933033      -3.09697068 
