24
Properties=species:S:1:pos:R:3 2c24 h20 p=T pbc="F F F" h12=T v,=T c6=T o=T s4=T
V      -0.19718690      -0.36350743      -0.00182220 
S      -1.67465681       1.24916298       0.94915413 
S       2.01028605      -0.54860526      -0.93914139 
S       0.83717518      -0.18886122       2.20039956 
S      -0.55016612       0.46185979      -2.21397563 
O      -0.90874115      -1.81647034       0.05784069 
C      -3.21251987       1.48038558      -0.01951482 
H      -3.94295138       1.06954287       0.46858968 
H      -3.39790611       2.43211863      -0.07137155 
C      -3.21215121       0.91683583      -1.43934573 
H      -3.14732458      -0.05003424      -1.39520136 
H      -4.05366033       1.13882842      -1.86776786 
C      -2.06810442       1.45376009      -2.28855513 
H      -1.86362937       2.35548847      -1.99843287 
H      -2.36253568       1.50133175      -3.21187064 
C       2.78721413      -1.72151967       0.22376804 
C       2.63369384       0.09188060       2.02800968 
C       3.42140944      -1.07189341       1.44455763 
H       2.11529868      -2.35275867       0.52250946 
H       3.46970956      -2.22251201      -0.25060437 
H       2.77032345       0.87009643       1.46290357 
H       2.99776505       0.30100273       2.90214565 
H       3.53042525      -1.74597572       2.13233577 
H       4.30493611      -0.75637891       1.20279475 
