24
Properties=species:S:1:pos:R:3 2c24 h20 p=T pbc="F F F" h12=T v,=T c6=T o=T s4=T
V      -0.30538191      -0.27600249       0.03985167 
S      -1.20094847       1.86750189       0.57960039 
S       1.74737002      -1.32030911      -0.65397722 
S       0.65948478      -0.03837283       2.26757501 
S      -0.29851463       0.19883910      -2.29979072 
O      -1.45577749      -1.39125097       0.27175937 
C      -2.54665822       2.39319642      -0.54712795 
H      -3.38636777       2.33207061      -0.06575549 
H      -2.40778537       3.32808497      -0.76972784 
C      -2.68673273       1.60867861      -1.85036208 
H      -2.94415323       0.69654563      -1.64363263 
H      -3.39495635       2.00377929      -2.38260131 
C      -1.40383844       1.58974944      -2.67018599 
H      -0.92401173       2.41704081      -2.51381987 
H      -1.63727940       1.55833598      -3.61145262 
C       2.05960052      -2.44521194       0.74916550 
C       2.45312835      -0.37874323       2.21276375 
C       2.83325793      -1.81839738       1.89942761 
H       1.20875543      -2.76465823       1.08561191 
H       2.55443863      -3.21480143       0.42560747 
H       2.85517013       0.19852074       1.54286737 
H       2.83808283      -0.13958563       3.07008941 
H       2.69345870      -2.35424263       2.69481193 
H       3.77851111      -1.84943238       1.68930545 
