24
Properties=species:S:1:pos:R:3 2c24 h20 p=T pbc="F F F" h12=T v,=T c6=T o=T s4=T
V      -0.39328739      -0.03716795      -0.12234058 
S       0.84254541      -1.80938234      -1.13226760 
S      -0.09735002       1.84226602       1.34936399 
S       0.71794629       1.25425974      -1.86806711 
S      -0.38116301      -1.10404737       2.01332548 
O      -1.92147034      -0.10370579      -0.65262344 
C       0.27641236      -3.47273951      -0.61309275 
H      -0.19794849      -3.87714786      -1.35606219 
H       1.06006685      -4.01875071      -0.43813452 
C      -0.62805574      -3.52923717       0.61664451 
H      -1.46708513      -3.08750418       0.41197258 
H      -0.82333513      -4.45671683       0.82306948 
C      -0.00488196      -2.87094734       1.83999903 
H       0.95695343      -2.97993016       1.79427721 
H      -0.31607173      -3.33373157       2.63401164 
C      -0.57664263       3.22250768       0.25532772 
C       1.51278417       2.73107387      -1.14469563 
C       0.55823738       3.77893335      -0.59142079 
H      -1.28352335       2.91954774      -0.33434540 
H      -0.93712696       3.93979853       0.80064176 
H       2.10236863       2.44302010      -0.42842220 
H       2.06478102       3.14759161      -1.82455301 
H       0.17745752       4.27178689      -1.33399218 
H       1.06550488       4.40601925      -0.05470763 
