24
Properties=species:S:1:pos:R:3 2c24 h20 p=T pbc="F F F" h12=T v,=T c6=T o=T s4=T
V      -0.10787845       0.01347708       0.39900408 
S       0.21267276      -2.27772503      -0.18032224 
S       0.00185311       2.21504763      -0.56370636 
S      -2.18507448      -0.33605926      -0.83114546 
S       2.24078320       0.43821184       0.45226802 
O      -0.61696921       0.09326340       1.93374545 
C       1.56115606      -3.08050740       0.76516148 
H       1.16132868      -3.68404733       1.41048741 
H       2.08377445      -3.61961411       0.14946111 
C       2.51508198      -2.14951623       1.51134445 
H       2.02521068      -1.69120422       2.21203351 
H       3.20945795      -2.67995306       1.93258383 
C       3.16544993      -1.11621768       0.60161759 
H       3.26810381      -1.50181106      -0.28148771 
H       4.05253655      -0.91807854       0.94115043 
C      -1.72683502       2.76822232      -0.37047363 
C      -2.40393888       0.98091470      -2.07761709 
C      -2.64647630       2.37438622      -1.51664040 
H      -2.08071856       2.39774059       0.45213758 
H      -1.73542179       3.73481204      -0.28414231 
H      -1.61100344       1.00846985      -2.63808702 
H      -3.15288447       0.74475391      -2.64656541 
H      -3.56414217       2.42761450      -1.20944945 
H      -2.54086733       3.01825108      -2.23281276 
