24
Properties=species:S:1:pos:R:3 2c24 h20 p=T pbc="F F F" h12=T v,=T c6=T o=T s4=T
V      -0.30514938      -0.16354184       0.22618923 
S       1.73009777      -0.48709484       1.42663151 
S      -1.13364431       0.79273559      -1.81951235 
S       0.59569203      -2.00770994      -1.09203520 
S      -0.39054625       2.15548079       0.78680461 
O      -1.50816437      -0.87176972       1.04602979 
C       1.75446437       0.36173339       3.05011638 
H       1.67078251      -0.30991730       3.74470304 
H       2.62215115       0.78391153       3.15845958 
C       0.67736978       1.42043764       3.27929056 
H      -0.19144673       0.98918810       3.29235437 
H       0.81785689       1.83174054       4.14650283 
C       0.67794573       2.50567243       2.21132407 
H       1.58566351       2.62861650       1.89505166 
H       0.39182405       3.33979913       2.61608496 
C      -1.83676200      -0.68096924      -2.63530851 
C       0.54823269      -1.58891446      -2.86921597 
C      -0.84332005      -1.47161985      -3.47345521 
H      -2.20358326      -1.26618622      -1.95549771 
H      -2.56935990      -0.39960742      -3.20623615 
H       1.01210556      -0.74529377      -2.99867073 
H       1.03880085      -2.26741058      -3.35848021 
H      -1.19575328      -2.36386357      -3.61130345 
H      -0.76803608      -1.05029659      -4.34261406 
