24
Properties=species:S:1:pos:R:3 2c24 h20 p=T pbc="F F F" h12=T v,=T c6=T o=T s4=T
V       0.17994247      -0.15067458      -0.34050187 
S       1.52835766       1.65280115       0.44513859 
S      -1.83263623      -1.35076100       0.20271530 
S      -1.21971251       1.69690712      -1.10049838 
S       0.95059268      -1.61556157       1.37986220 
O       0.81200278      -0.70547805      -1.72385403 
C       3.22111796       1.13647969       0.91924925 
H       3.83702557       1.45894611       0.24305315 
H       3.45006219       1.57745258       1.75350366 
C       3.44954748      -0.36369124       1.09479235 
H       3.33993711      -0.80225983       0.23651960 
H       4.36160891      -0.51216393       1.38985784 
C       2.49565463      -0.99355753       2.10059760 
H       2.27876661      -0.33417916       2.77681856 
H       2.95029677      -1.72866419       2.54148656 
C      -2.84843826      -1.01876175      -1.27702336 
C      -2.94500765       1.43940839      -0.55914395 
C      -3.66236973       0.26469681      -1.20777827 
H      -2.26528116      -0.97461142      -2.04978337 
H      -3.45551619      -1.76411667      -1.41015844 
H      -2.94886155       1.30892637       0.40345256 
H      -3.44934276       2.24675558      -0.74415800 
H      -3.91768526       0.51821011      -2.10769780 
H      -4.47613678       0.08822831      -0.71254084 
