24
Properties=species:S:1:pos:R:3 2c24 h20 p=T pbc="F F F" h12=T v,=T c6=T o=T s4=T
V       0.34946016      -0.03040973      -0.21903537 
S      -0.41550837       2.22143128      -0.39796107 
S      -0.23734192      -2.12491638       0.80783878 
S      -1.45917904      -0.39516839      -1.81464254 
S       1.12937644       0.30035409       2.01295345 
O       1.67042616      -0.20324693      -1.13889756 
C       0.75995943       3.44167457       0.29923903 
H       1.17680998       3.91594400      -0.43688057 
H       0.25320179       4.09164421       0.81264836 
C       1.86579084       2.88499554       1.19408739 
H       2.45172385       2.32534187       0.66074021 
H       2.39313000       3.62183727       1.54041312 
C       1.32744069       2.07019544       2.36223431 
H       0.46732994       2.43283840       2.62260831 
H       1.93010339       2.17212587       3.11580727 
C      -0.47481093      -3.18100117      -0.66185411 
C      -2.52784854      -1.76364148      -1.24786178 
C      -1.87829148      -3.13963481      -1.24758133 
H       0.15462780      -2.90656335      -1.34571832 
H      -0.26579613      -4.09786130      -0.42205663 
H      -2.82885341      -1.56519365      -0.34583796 
H      -3.31370608      -1.79562976      -1.81513445 
H      -1.84245862      -3.46379906      -2.16023884 
H      -2.44118764      -3.74670845      -0.74436411 
