24
Properties=species:S:1:pos:R:3 2c24 h20 p=T pbc="F F F" h12=T v,=T c6=T o=T s4=T
V      -0.09316828       0.36830671       0.16338139 
S       1.65372353      -0.57984163       1.48147201 
S      -1.44530296      -0.11188279      -1.76714060 
S      -1.42520190      -1.25584089       1.40354989 
S       1.40307643       0.92019466      -1.61316572 
O      -0.54097802       1.77367172       0.83075384 
C       3.19179384       0.41561547       1.46694310 
H       3.28036894       0.84938388       2.32982627 
H       3.94414564      -0.19034069       1.36877554 
C       3.29763037       1.48641611       0.38264938 
H       2.62233758       2.16443517       0.54157943 
H       4.16675978       1.91290787       0.44333442 
C       3.11878934       0.92590107      -1.02167469 
H       3.45514223       0.01721838      -1.03772347 
H       3.65695774       1.44979669      -1.63598120 
C      -3.11525930      -0.12521680      -1.03041010 
C      -2.44429179      -2.24052152       0.25121600 
C      -3.54415544      -1.47108795      -0.46541084 
H      -3.14585596       0.53313237      -0.31990345 
H      -3.75540265       0.14483560      -1.70798719 
H      -1.85918388      -2.63472685      -0.41652896 
H      -2.85154837      -2.96854143       0.74570837 
H      -4.27463278      -1.32763802       0.15518173 
H      -3.88096849      -2.01767105      -1.19096025 
