24
Properties=species:S:1:pos:R:3 2c24 h20 p=T pbc="F F F" h12=T v,=T c6=T o=T s4=T
V       0.34451659       0.10642205       0.20250015 
S      -0.03940893       1.75641984      -1.47621591 
S      -0.60894706      -1.91978821       1.08064842 
S       1.09074799      -1.17603802      -1.73363562 
S      -1.39544178       0.96472347       1.59365497 
O       1.73615145       0.44814657       0.95585738 
C      -0.31829602       3.43282221      -0.79159682 
H       0.47028283       3.96834408      -0.97027990 
H      -1.05833396       3.83748039      -1.27268786 
C      -0.62039656       3.51429628       0.70359731 
H       0.16068214       3.22326418       1.19978813 
H      -0.79559838       4.43842119       0.94079199 
C      -1.81504079       2.66365500       1.11289168 
H      -2.44008911       2.63096191       0.37306684 
H      -2.26289112       3.09517179       1.85766526 
C       0.73653825      -3.10954742       0.75530850 
C       0.28236361      -2.81380475      -1.74939479 
C       0.69023883      -3.75195919      -0.62299070 
H       1.58529518      -2.65275738       0.85597634 
H       0.69961666      -3.81047637       1.42550096 
H      -0.67919566      -2.68234813      -1.70749770 
H       0.47918363      -3.24601521      -2.59488258 
H       1.56619514      -4.11401386      -0.82529527 
H       0.06701526      -4.49328761      -0.59764089 
