24
Properties=species:S:1:pos:R:3 2c24 h20 p=T pbc="F F F" h12=T v,=T c6=T o=T s4=T
V      -0.19753615      -0.30659925       0.19493592 
S       0.44046292       1.29658199       1.84137033 
S      -0.07382132      -0.69845989      -2.17506517 
S       2.17374915      -0.86201030       0.33172572 
S      -1.97685123       1.06834911      -0.60693878 
O      -0.89671292      -1.56295328       0.93904393 
C      -0.98706590       2.04789689       2.70998625 
H      -1.01917903       1.68644454       3.60936874 
H      -0.82685043       3.00249177       2.78700959 
C      -2.35738504       1.84503662       2.06610626 
H      -2.58177358       0.90165367       2.09193885 
H      -3.02387203       2.32313759       2.58396569 
C      -2.41075282       2.32964645       0.62368035 
H      -1.80448828       3.07932252       0.52608856 
H      -3.30735175       2.64998105       0.43670321 
C       0.90014610      -2.24139642      -2.22444235 
C       2.90350019      -0.90906969      -1.34197150 
C       2.40741270      -2.03515750      -2.23701650 
H       0.66742090      -2.77967635      -1.45290287 
H       0.64899453      -2.74153609      -3.01728894 
H       2.71921103      -0.06262627      -1.78152069 
H       3.86623356      -0.98729570      -1.25583938 
H       2.83495631      -2.85981940      -1.96052167 
H       2.68676189      -1.85253829      -3.14653963 
