24
Properties=species:S:1:pos:R:3 2c24 h20 p=T pbc="F F F" h12=T v,=T c6=T o=T s4=T
V      -0.13516523      -0.37731356       0.10192392 
S       1.73189036       0.11785086       1.50081448 
S      -1.45718451       0.59149308      -1.65859988 
S       1.63903542      -0.73518428      -1.53341321 
S      -1.57736214       1.07220444       1.33416327 
O      -0.63278294      -1.88532796       0.41694692 
C       1.30759636       0.16552669       3.28252934 
H       1.67470650      -0.62759614       3.70295085 
H       1.74916222       0.93417205       3.67883337 
C      -0.17920507       0.24103961       3.62491447 
H      -0.61113124      -0.57898163       3.33856873 
H      -0.27888642       0.30877554       4.58743164 
C      -0.87739305       1.42553504       2.97085681 
H      -0.24133424       2.15167006       2.88569715 
H      -1.59118255       1.72656092       3.55511045 
C      -1.16345814      -0.59764448      -3.01188495 
C       1.27456543       0.19004131      -3.06544871 
C       0.06968996      -0.30339273      -3.85290033 
H      -1.07469100      -1.48450906      -2.63139699 
H      -1.94069138      -0.60446480      -3.59299122 
H       1.13040823       1.12250208      -2.83443345 
H       2.05395742       0.15128121      -3.64115644 
H       0.32078775      -1.11053757      -4.32700717 
H      -0.16054620       0.36454984      -4.51581970 
