24
Properties=species:S:1:pos:R:3 2c24 h20 p=T pbc="F F F" h12=T v,=T c6=T o=T s4=T
V      -0.09336330      -0.37991665       0.13405326 
S      -1.91911484       1.04785877       0.69625238 
S       2.05645453      -0.32427504      -0.94342184 
S       0.91900750       0.75810900       2.03935897 
S      -0.71545496      -0.44409511      -2.16992835 
O      -0.39083013      -1.85777930       0.72431237 
C      -3.48978334       0.56608662      -0.11473606 
H      -4.07054298       0.17591035       0.55686550 
H      -3.92303110       1.37217452      -0.43934605 
C      -3.37960038      -0.41741332      -1.27839230 
H      -3.05871064      -1.26904793      -0.94262867 
H      -4.26158617      -0.56034522      -1.65606326 
C      -2.44402482       0.06848938      -2.37697514 
H      -2.47866453       1.03645077      -2.40773052 
H      -2.76643995      -0.26475074      -3.22930362 
C       3.14987914      -0.82146041       0.43096280 
C       2.57052445       1.39213594       1.58491959 
C       3.62262480       0.32836545       1.30786487 
H       2.67878255      -1.46112703       0.98600704 
H       3.92737746      -1.27007747       0.06209751 
H       2.47922769       1.94817917       0.79364640 
H       2.89037561       1.96011551       2.30289455 
H       3.92637969      -0.03265027       2.15445260 
H       4.38321012       0.75012143       0.88095748 
