24
Properties=species:S:1:pos:R:3 2c24 h20 p=T pbc="F F F" h12=T v,=T c6=T o=T s4=T
V       0.03669682      -0.16184532       0.37879160 
S       0.83761378       2.08244830       0.47706328 
S      -0.90138518      -1.74254333      -1.17271131 
S       2.19900833      -0.50876265      -0.69556597 
S      -2.24294942       0.54309588       0.30316677 
O       0.24914873      -0.85145522       1.82802337 
C      -0.13252364       3.14718558       1.60930624 
H       0.40215459       3.31417675       2.40101394 
H      -0.27730323       4.00195510       1.17197235 
C      -1.48877875       2.60479692       2.05640227 
H      -1.34884547       1.81240581       2.59818078 
H      -1.92807027       3.26929213       2.60996610 
C      -2.39984505       2.25391452       0.88801574 
H      -2.20362422       2.85241121       0.15154161 
H      -3.32002714       2.40739342       1.15479936 
C       0.36449245      -3.05718534      -1.14150241 
C       1.97984864      -1.41580553      -2.26567928 
C       1.50719656      -2.85531909      -2.12538377 
H       0.73217843      -3.11225157      -0.24654196 
H      -0.06478791      -3.90583155      -1.33473931 
H       1.33827582      -0.93310537      -2.81250402 
H       2.82466470      -1.41545625      -2.74178778 
H       2.25772731      -3.40018415      -1.84407284 
H       1.22547865      -3.17403917      -2.99582653 
