24
Properties=species:S:1:pos:R:3 2c24 h20 p=T pbc="F F F" h12=T v,=T c6=T o=T s4=T
V      -0.25650622       0.31831392       0.06248562 
S       0.99212685       0.78106994      -1.91608747 
S      -0.50457841      -1.36589471       1.76179924 
S       1.85030592       0.95701468       1.11300493 
S      -1.63215690      -1.28245491      -1.05311849 
O      -1.20856838       1.58792685       0.38284630 
C      -0.05372778       0.92637111      -3.41337898 
H      -0.09423873       1.86203724      -3.66528309 
H       0.38509528       0.45032059      -4.13702476 
C      -1.48387077       0.40242409      -3.29642258 
H      -1.96951896       0.94980398      -2.65962587 
H      -1.92311970       0.48765123      -4.15709705 
C      -1.54631973      -1.05229068      -2.85123456 
H      -0.76173749      -1.51252330      -3.18546756 
H      -2.32509778      -1.46731301      -3.25462712 
C      -0.03381452      -0.42824067       3.25541567 
C       2.35276431      -0.30939182       2.32946031 
C       1.45786223      -0.42662821       3.55448602 
H      -0.33015844       0.48863898       3.15201608 
H      -0.50251178      -0.80354528       4.01784065 
H       2.37775027      -1.17170282       1.88288682 
H       3.25430947      -0.11050061       2.62619626 
H       1.65317834       0.31203027       4.15076234 
H       1.68018624      -1.24550699       4.02206237 
