24
Properties=species:S:1:pos:R:3 2c24 h20 p=T pbc="F F F" h12=T v,=T c6=T o=T s4=T
V       0.04260992       0.02884106      -0.41033673 
S      -0.57753122       2.18461036       0.39964034 
S       0.49832147      -2.19925416       0.37304312 
S      -2.32685165      -0.40424248      -0.02526868 
S       2.28046830       0.25550294       0.38970229 
O       0.13146042       0.08841467      -2.02573975 
C       0.69102501       3.46810982       0.08309582 
H       0.36576751       4.04831180      -0.62269534 
H       0.78130905       4.00919288       0.88430172 
C       2.07898456       2.96814726      -0.31328021 
H       2.02139481       2.52726674      -1.17542680 
H       2.67382942       3.72854788      -0.40769593 
C       2.67116921       2.00006640       0.70181787 
H       2.34558212       2.23769543       1.58307864 
H       3.63564800       2.10602753       0.70597202 
C      -0.80222097      -3.14634279      -0.48911481 
C      -2.53300875      -1.93002233       0.95733432 
C      -2.12790443      -3.21703099       0.25392739 
H      -0.95470356      -2.74388818      -1.35742284 
H      -0.48122232      -4.05013273      -0.63725709 
H      -2.00815871      -1.84527299       1.77034257 
H      -3.46369290      -2.00376002       1.21960019 
H      -2.82390490      -3.45582708      -0.37684196 
H      -2.07560634      -3.92560581       0.91256590 
