24
Properties=species:S:1:pos:R:3 2c24 h20 p=T pbc="F F F" h12=T v,=T c6=T o=T s4=T
V       0.01611962      -0.40546105       0.07978183 
S      -2.28464045       0.21222015      -0.03402577 
S       2.21617372       0.54504584      -0.12531311 
S      -0.16721654       0.68462629       2.25424368 
S       0.26991686      -0.30367413      -2.29185781 
O       0.11277454      -1.97160388       0.47831009 
C      -3.19443403      -0.63387011      -1.38058180 
H      -3.77579881      -1.29988944      -0.98183228 
H      -3.76187623       0.01988748      -1.82042649 
C      -2.34414301      -1.32139589      -2.44726907 
H      -1.86072127      -2.05710158      -2.03980189 
H      -2.92853282      -1.69068162      -3.12776921 
C      -1.34883853      -0.37809319      -3.10896109 
H      -1.72952708       0.51293890      -3.12422856 
H      -1.21943749      -0.65862512      -4.02875539 
C       2.88988082       0.23139171       1.54185324 
C       1.17789021       1.90307891       2.45936452 
C       2.57793982       1.31604951       2.56202747 
H       2.53538062      -0.61024790       1.86612449 
H       3.85339967       0.13705012       1.47437271 
H       1.15542336       2.51547716       1.70564304 
H       1.00354842       2.42210736       3.25974444 
H       2.69318597       0.94730296       3.45087756 
H       3.22161112       2.03260568       2.45785173 
