24
Properties=species:S:1:pos:R:3 2c24 h20 p=T pbc="F F F" h12=T v,=T c6=T o=T s4=T
V       0.13128453       0.33699861      -0.20054913 
S      -1.56325796       1.02730989       1.32914863 
S       1.29944411      -1.63661614      -0.92581689 
S      -1.81317126      -0.45138135      -1.44462934 
S       1.74350131       0.07312367       1.54030563 
O       0.60416263       1.62216245      -1.06409447 
C      -0.95680112       2.20175471       2.59788645 
H      -1.30703089       3.08160457       2.38867062 
H      -1.32745474       1.93899766       3.45604005 
C       0.55904766       2.31610081       2.74833808 
H       0.92956639       2.69223229       1.93456297 
H       0.75941278       2.92604248       3.47551675 
C       1.22844766       0.97728042       3.02717661 
H       0.61348638       0.42218290       3.52995331 
H       2.00880625       1.13011737       3.58318532 
C       0.82579880      -1.69624162      -2.68757984 
C      -1.57497842      -2.19282048      -1.94128561 
C      -0.47583349      -2.43308998      -2.96570404 
H       0.74479392      -0.78868013      -3.01765533 
H       1.53849890      -2.12688359      -3.18600596 
H      -1.37447830      -2.71437081      -1.14666785 
H      -2.41025735      -2.52645799      -2.30376145 
H      -0.80310452      -2.16488728      -3.83763934 
H      -0.29106208      -3.38339053      -3.00320672 
