24
Properties=species:S:1:pos:R:3 2c24 h20 p=T pbc="F F F" h12=T v,=T c6=T o=T s4=T
V       0.03462023      -0.36517725       0.19097294 
S      -2.08804742       0.55157895       0.77562606 
S       1.98419659       0.13364808      -1.12663498 
S       0.79750588       1.29545900       1.80667081 
S      -0.70732858      -0.96063916      -1.99863553 
O       0.23686681      -1.75628905       0.99401378 
C      -3.49793605      -0.47792727       0.21962497 
H      -3.88447262      -0.90848918       0.99793973 
H      -4.17501278       0.11054994      -0.15201283 
C      -3.18452139      -1.55716132      -0.81504085 
H      -2.59990567      -2.21904066      -0.41363190 
H      -4.00866686      -2.00252528      -1.06683248 
C      -2.52039962      -1.00105435      -2.06722879 
H      -2.84504650      -0.10019155      -2.21604295 
H      -2.79012801      -1.54039165      -2.82737761 
C       3.27413736       0.18846358       0.16361765 
C       2.14582033       2.29579621       1.08737453 
C       3.44453061       1.54683769       0.82719214 
H       3.05797306      -0.46486165       0.84598019 
H       4.12090403      -0.07124733      -0.23306731 
H       1.83456268       2.67295860       0.24802976 
H       2.33304903       3.03558749       1.68574556 
H       3.90367326       1.42332262       1.67172883 
H       4.01069111       2.09651436       0.26511038 
