24
Properties=species:S:1:pos:R:3 2c24 h20 p=T pbc="F F F" h12=T v,=T c6=T o=T s4=T
V      -0.02868666      -0.27339732       0.30895732 
S       1.33747166       1.52752359       1.06940095 
S      -1.26987441      -0.98746367      -1.62374222 
S       2.01691531      -0.84870904      -0.88883894 
S      -2.02860736       1.01185147       0.52782015 
O      -0.08798649      -1.40320768       1.46696527 
C       0.62775106       2.41670732       2.50552600 
H       1.14365896       2.18212072       3.29253050 
H       0.74124670       3.36974770       2.35826517 
C      -0.84649246       2.15320998       2.80666292 
H      -0.95363382       1.22650842       3.07262134 
H      -1.12124676       2.70980310       3.55210105 
C      -1.75318498       2.43720094       1.61689607 
H      -1.36401160       3.15517758       1.09521736 
H      -2.61175987       2.74553640       1.94741499 
C      -0.40599880      -2.54044462      -2.04048298 
C       1.64871596      -1.13738917      -2.65437188 
C       0.80086993      -2.36578266      -2.95015670 
H      -0.11582449      -2.96391795      -1.21850446 
H      -1.03569890      -3.13943844      -2.47234720 
H       1.19064830      -0.35563815      -3.00461724 
H       2.48739979      -1.22092166      -3.13398147 
H       1.36156404      -3.15272866      -2.87500171 
H       0.49194290      -2.31428280      -3.86696089 
