24
Properties=species:S:1:pos:R:3 2c24 h20 p=T pbc="F F F" h12=T v,=T c6=T o=T s4=T
V      -0.13927131       0.27588382       0.27480041 
S      -2.03329826      -0.62258087      -0.86247805 
S       2.25797131       0.09052818       0.34289138 
S       0.09279384       1.49869835      -1.82306929 
S       0.14689992      -1.70163846       1.58130715 
O      -0.64588739       1.42427611       1.29730010 
C      -3.18874480      -1.51086447       0.24779297 
H      -3.98138471      -0.96363160       0.36104529 
H      -3.46351560      -2.33077697      -0.19390543 
C      -2.65697205      -1.87126282       1.63373634 
H      -2.49084704      -1.05466454       2.13028308 
H      -3.33408880      -2.37629785       2.11061825 
C      -1.37475430      -2.69064452       1.58064594 
H      -1.38902457      -3.23681239       0.78027598 
H      -1.35646430      -3.28852906       2.34462493 
C       2.75345109       1.78498691      -0.12080377 
C       1.79836797       1.33773324      -2.45641018 
C       2.87065861       2.01955808      -1.61939776 
H       2.10452858       2.40750760       0.24050920 
H       3.60957333       1.98169668       0.29172804 
H       2.01385956       0.39282229      -2.52228210 
H       1.82957815       1.70527786      -3.35325492 
H       2.83268650       2.97333111      -1.78728252 
H       3.73853291       1.70584911      -1.91435360 
