24
Properties=species:S:1:pos:R:3 2c24 h20 p=T pbc="F F F" h12=T v,=T c6=T o=T s4=T
V      -0.03844317       0.06908491      -0.40592246 
S       0.56607627       2.13584184       0.61928544 
S      -0.47498612      -2.23095872       0.14634092 
S      -2.20481009       0.63186836       0.56377649 
S       2.17626449      -0.79951021      -0.20577078 
O      -0.28243473       0.32641146      -1.98554947 
C       2.17431165       2.78987860       0.03394703 
H       2.00079724       3.55176482      -0.54050060 
H       2.66804684       3.11455605       0.80444239 
C       3.06814479       1.81300470      -0.72781931 
H       2.63463231       1.57300941      -1.56176064 
H       3.90508718       2.25314141      -0.94408525 
C       3.36557885       0.54508658       0.06097973 
H       3.37965344       0.76363204       1.00497912 
H       4.25045415       0.22913536      -0.18116668 
C      -2.21368535      -2.39457151      -0.38456363 
C      -2.85710471      -0.78973739       1.50694262 
C      -3.23509418      -2.00550604       0.67368834 
H      -2.35216454      -1.84045801      -1.16748204 
H      -2.37300251      -3.31564118      -0.64546825 
H      -2.18885955      -1.05890047       2.15858062 
H      -3.64084539      -0.49927989       1.99865248 
H      -4.08169302      -1.82841045       0.23640385 
H      -3.36608310      -2.75891806       1.26852469 
