24
Properties=species:S:1:pos:R:3 2c24 h20 p=T pbc="F F F" h12=T v,=T c6=T o=T s4=T
V       0.39255589      -0.12831212      -0.02143643 
S      -0.77498794      -1.62912680       1.41813846 
S       0.02796733       1.83500107      -1.36242181 
S       0.27435311       1.29536666       1.95577214 
S      -0.59833030      -1.06829332      -1.97950387 
O       1.95428438      -0.55348960      -0.05605669 
C      -0.80905923      -3.35096200       0.79289536 
H      -0.20820044      -3.88313989       1.33725126 
H      -1.70490708      -3.70263230       0.92188221 
C      -0.42562364      -3.54921117      -0.67243145 
H       0.50786309      -3.31268685      -0.78925485 
H      -0.52538299      -4.48657691      -0.90124879 
C      -1.27284448      -2.71508921      -1.62361215 
H      -2.15723031      -2.61171525      -1.24115878 
H      -1.36835715      -3.19847085      -2.45948527 
C       1.15148795       3.02482242      -0.55388587 
C      -0.37363233       2.94216152       1.50389261 
C       0.53585084       3.77830536       0.61564379 
H       1.93331557       2.54729385      -0.23782968 
H       1.44927110       3.66920771      -1.21563757 
H      -1.22381498       2.82372378       1.04914610 
H      -0.54745131       3.43863005       2.31857020 
H       1.25043446       4.14105909       1.16070356 
H       0.02619715       4.52534505       0.26807670 
