24
Properties=species:S:1:pos:R:3 2c24 h20 p=T pbc="F F F" h12=T v,=T c6=T o=T s4=T
V      -0.20508598       0.26474200      -0.24264182 
S       0.01414671      -1.78502109      -1.44196973 
S       0.35942916       1.25834552       1.87392143 
S       2.14063937       0.47397488      -0.87823685 
S      -1.91467828      -0.62131750       1.16861327 
O      -0.92765869       1.35094069      -1.20130310 
C      -1.59516053      -2.56393641      -1.84225382 
H      -1.75673191      -2.45504860      -2.79230964 
H      -1.52257982      -3.51643331      -1.66808524 
C      -2.81298193      -2.03299246      -1.08825261 
H      -2.96736350      -1.11100540      -1.34727990 
H      -3.59345475      -2.54842130      -1.34546679 
C      -2.64971774      -2.10410842       0.42388979 
H      -2.09341690      -2.86763801       0.63986890 
H      -3.52127446      -2.25252673       0.82367128 
C       1.43949488       2.62952570       1.34004247 
C       3.15284828       0.87882767       0.58721219 
C       2.90613446       2.25444816       1.18894525 
H       1.11648471       2.96578477       0.49046978 
H       1.36868258       3.34992648       1.98644083 
H       2.98545914       0.20931424       1.27085324 
H       4.08886712       0.81479798       0.34193164 
H       3.33919462       2.91749144       0.63024795 
H       3.32556602       2.28951045       2.06156536 
