24
Properties=species:S:1:pos:R:3 2c24 h20 p=T pbc="F F F" h12=T v,=T c6=T o=T s4=T
V      -0.13071725       0.20749896       0.33298772 
S      -0.70335270       1.49987758      -1.58790408 
S       0.92611312      -1.86622525       0.94006495 
S       2.08370215       1.09911919      -0.16855683 
S      -1.89073848      -1.35600830      -0.06352016 
O      -0.55159816       1.03584700       1.65875887 
C      -2.50879000       1.74219804      -1.78407537 
H      -2.71713507       2.66277495      -1.56114393 
H      -2.73200148       1.61323843      -2.72023723 
C      -3.41058315       0.83443501      -0.94966321 
H      -3.28241595       1.03941489      -0.01022436 
H      -4.33681323       1.01973250      -1.17040407 
C      -3.13427778      -0.64535801      -1.17803851 
H      -2.83699501      -0.76752983      -2.09225514 
H      -3.96416394      -1.13643120      -1.07033322 
C       2.33512582      -1.26391122       1.93183347 
C       3.30864161      -0.25496190      -0.21329244 
C       3.57964271      -0.93201835       1.12216069 
H       2.05810056      -0.47006998       2.41375938 
H       2.56391504      -1.94066247       2.58870923 
H       3.00022747      -0.92773939      -0.84248526 
H       4.14531935       0.09806052      -0.55349699 
H       4.14806045      -0.35262633       1.65179863 
H       4.06983400      -1.75159527       0.95899136 
