24
Properties=species:S:1:pos:R:3 2c24 h20 p=T pbc="F F F" h12=T v,=T c6=T o=T s4=T
V      -0.35142600       0.19341290      -0.10057266 
S       0.62971721      -0.60814293      -2.12117787 
S       0.03069374       0.22862137       2.27398207 
S       1.40794715       1.86739861      -0.32984291 
S      -1.08840375      -1.98771170       0.53109773 
O      -1.68576937       1.03244385      -0.47006581 
C      -0.41854142      -1.82720671      -2.99972414 
H      -0.78921808      -1.39739963      -3.78612901 
H       0.15096423      -2.55128225      -3.30669466 
C      -1.57080985      -2.43314623      -2.20058521 
H      -2.21033164      -1.73487861      -1.98981721 
H      -2.02243898      -3.09396102      -2.74859870 
C      -1.11122722      -3.09337160      -0.90784642 
H      -0.21896138      -3.44727997      -1.04090875 
H      -1.69871561      -3.84116825      -0.71517594 
C       0.15916905       2.02325913       2.58134702 
C       2.33927335       2.01537871       1.23436518 
C       1.55816436       2.59438610       2.40479301 
H      -0.44247290       2.48492524       1.97796419 
H      -0.13784595       2.20487915       3.48722712 
H       2.66100957       1.13375594       1.48508323 
H       3.11649071       2.57386962       1.07811322 
H       1.48798887       3.55347871       2.28426525 
H       2.06047528       2.43869347       3.21846469 
