24
Properties=species:S:1:pos:R:3 2c24 h20 p=T pbc="F F F" h12=T v,=T c6=T o=T s4=T
V      -0.36240393      -0.18188201      -0.08127711 
S      -0.82845844       1.90972247       0.96560542 
S       1.48974999      -1.53409382      -0.80709691 
S       0.18394221      -0.80338359       2.21337506 
S       0.20349381       0.86101532      -2.15288834 
O      -1.76069062      -0.95813319      -0.33267081 
C      -1.77475858       3.05806478      -0.10333434 
H      -2.68257200       3.10794207       0.23423785 
H      -1.38472993       3.94313098      -0.01737820 
C      -1.83773122       2.70718859      -1.58873954 
H      -2.33258052       1.87990643      -1.69698621 
H      -2.32024397       3.40550378      -2.05831508 
C      -0.46033957       2.54880912      -2.21802129 
H       0.15733041       3.14244769      -1.76506203 
H      -0.50910757       2.82736639      -3.14618716 
C       1.25924865      -3.02451041       0.22112062 
C       1.82756012      -1.59775336       2.27262332 
C       1.91991968      -2.95437894       1.58974788 
H       0.30938226      -3.17329030       0.34276712 
H       1.61689154      -3.78957286      -0.25699393 
H       2.47262823      -1.00054956       1.85926245 
H       2.08474364      -1.70390882       3.20159116 
H       1.51040476      -3.61781720       2.16547123 
H       2.85505675      -3.18877920       1.49386657 
