24
Properties=species:S:1:pos:R:3 2c24 h20 p=T pbc="F F F" h12=T v,=T c6=T o=T s4=T
V       0.13644952      -0.25455778      -0.29598227 
S       1.48269032      -0.61751096       1.63892854 
S      -1.71863407       1.07433984      -1.05654870 
S       1.52992550       1.74137572      -0.45302058 
S      -1.71227968      -1.44188051       0.63778069 
O       0.70308351      -1.17504333      -1.50122193 
C       1.35476422      -2.32177834       2.29916625 
H       2.17905495      -2.78940359       2.09315812 
H       1.28625071      -2.26786807       3.26625082 
C       0.18844389      -3.16365949       1.78492772 
H       0.31011382      -3.32554477       0.83625574 
H       0.19538064      -4.02238505       2.23604427 
C      -1.16354338      -2.49941961       2.00674545 
H      -1.11692631      -1.96356720       2.81283731 
H      -1.82914846      -3.19054770       2.15088497 
C      -0.94400855       2.00940368      -2.41938204 
C       0.48178674       3.22155295      -0.66864538 
C      -0.26632272       3.30243193      -1.99117059 
H      -0.28621927       1.44248667      -2.84961204 
H      -1.62525348       2.21967079      -3.07780105 
H      -0.16692811       3.24670128       0.05396727 
H       1.04073533       4.00944650      -0.58382881 
H       0.35827697       3.56831400      -2.68290185 
H      -0.93913616       3.99622493      -1.92341071 
