24
Properties=species:S:1:pos:R:3 2c24 h20 p=T pbc="F F F" h12=T v,=T c6=T o=T s4=T
V      -0.20037818      -0.36016641      -0.03394683 
S       2.02860761      -0.84248901       0.66388295 
S      -1.62398475       1.50029762      -0.57964204 
S       0.92168814      -0.02897469      -2.17438279 
S      -0.82567027       0.41168165       2.13693054 
O      -0.98581308      -1.75750852      -0.26087719 
C       2.11260328      -1.65718749       2.30279030 
H       2.34889285      -2.58793079       2.16695186 
H       2.83234696      -1.24651848       2.80892564 
C       0.84383369      -1.60711236       3.15203966 
H       0.14785364      -2.11838614       2.71022540 
H       1.02060296      -2.02509545       4.00936492 
C       0.34513002      -0.18786889       3.38726283 
H       1.10821069       0.40907369       3.40876841 
H      -0.08319480      -0.14940675       4.25704605 
C      -2.02482370       1.13502308      -2.32251508 
C       0.43362796       1.57657271      -2.89551270 
C      -1.02159647       1.68066210      -3.32768093 
H      -2.08224190       0.17388418      -2.43249070 
H      -2.89871095       1.50583004      -2.52412308 
H       0.61140109       2.27350743      -2.24258764 
H       0.99564933       1.75134311      -3.66621427 
H      -1.12984519       1.20251512      -4.16372390 
H      -1.22793615       2.61223128      -3.49567158 
