24
Properties=species:S:1:pos:R:3 2c24 h20 p=T pbc="F F F" h12=T v,=T c6=T o=T s4=T
V      -0.27162052       0.28473368       0.12717182 
S       1.36664501       1.39883563      -1.20054880 
S      -0.84311700      -1.90766895       0.93496374 
S       1.53937115       0.32933471       1.76072831 
S      -1.33167514      -0.66569678      -1.78918262 
O      -1.30120195       1.38824724       0.71299623 
C       0.66910175       2.18071722      -2.70351280 
H       0.66173712       3.14128152      -2.56998408 
H       1.26655410       1.99611710      -3.44636303 
C      -0.73897274       1.74496969      -3.10470925 
H      -1.36491308       2.03186253      -2.42142298 
H      -0.98198938       2.18563774      -3.93399715 
C      -0.86157261       0.23876004      -3.29069068 
H      -0.01204858      -0.10462000      -3.60611755 
H      -1.52336578       0.06364078      -3.97831515 
C      -0.73219136      -1.65585358       2.73939947 
C       1.79522472      -1.33938720       2.45780769 
C       0.65793356      -1.86578586       3.32079981 
H      -1.02107366      -0.75389754       2.94483024 
H      -1.34654357      -2.26704362       3.17625255 
H       1.93791231      -1.96025113       1.72445876 
H       2.60529962      -1.32937065       2.99079168 
H       0.70055821      -1.43080422       4.18583408 
H       0.79283257      -2.81436319       3.46440118 
