24
Properties=species:S:1:pos:R:3 2c24 h20 p=T pbc="F F F" h12=T v,=T c6=T o=T s4=T
V       0.07064546      -0.37416594      -0.16134654 
S      -1.74872465      -0.58372850       1.36638219 
S       1.58106624       1.27330255      -1.05030208 
S       1.34326763      -0.30525152       1.91852617 
S      -1.29624399       0.68311040      -1.80853449 
O       0.42877598      -1.84132875      -0.74456706 
C      -3.30607018      -1.12321952       0.56611314 
H      -3.47277043      -2.04489016       0.81771239 
H      -4.03264695      -0.58883322       0.92579420 
C      -3.35455584      -1.02944672      -0.95781733 
H      -2.71136813      -1.65118285      -1.33297424 
H      -4.23645038      -1.29428800      -1.26291560 
C      -3.05242482       0.37068038      -1.47419730 
H      -3.36302373       1.01554681      -0.82092045 
H      -3.55435866       0.51508166      -2.29192283 
C       3.18829449       0.61187374      -0.49259871 
C       2.47407450       1.12906535       1.91357659 
C       3.60630666       1.06189098       0.89926892 
H       3.14646757      -0.35624628      -0.50577510 
H       3.87215574       0.88433669      -1.12499119 
H       1.95313537       1.93054787       1.74071645 
H       2.86012818       1.21963521       2.79853605 
H       4.28224893       0.45207123       1.23173260 
H       4.01260178       1.93879002       0.83151634 
