24
Properties=species:S:1:pos:R:3 2c24 h20 p=T pbc="F F F" h12=T v,=T c6=T o=T s4=T
V      -0.37902330      -0.16371343       0.02372544 
S       0.38172416      -0.43833375      -2.21989354 
S       0.33517965       0.72700723       2.14086884 
S      -0.70121560       2.12910431      -0.74397622 
S       1.02646260      -1.91836940       0.82699378 
O      -1.89705040      -0.71675717       0.12719850 
C       0.52536704      -2.19371996      -2.72466299 
H      -0.19867992      -2.39294740      -3.33836679 
H       1.35737126      -2.30144719      -3.21355644 
C       0.49541700      -3.22820879      -1.60107760 
H      -0.37852962      -3.21217307      -1.18042441 
H       0.62609529      -4.11120791      -1.98081378 
C       1.56161660      -2.98249648      -0.54224277 
H       2.33239028      -2.57682212      -0.96701483 
H       1.84171516      -3.83765719      -0.17932499 
C      -0.92164167       2.02132604       2.41807410 
C       0.07095219       3.29671334       0.42924993 
C      -0.58406492       3.37018444       1.80068593 
H      -1.76625066       1.71635227       2.05364834 
H      -1.04026215       2.13885940       3.37407494 
H       1.00182605       3.04470484       0.54586047 
H       0.05776865       4.18271047       0.03525897 
H      -1.39928892       3.88890997       1.72556056 
H       0.00948621       3.84511061       2.40131915 
