24
Properties=species:S:1:pos:R:3 2c24 h20 p=T pbc="F F F" h12=T v,=T c6=T o=T s4=T
V       0.32864123       0.08029368      -0.23784766 
S      -1.53023470       1.25343990      -1.16320562 
S       0.89424682      -1.37388196       1.59278853 
S      -0.79694621      -1.81070763      -1.29015645 
S       0.55598471       1.64046603       1.55481109 
O       1.61257550       0.30439088      -1.19819322 
C      -1.30678321       3.07191046      -1.16956829 
H      -1.14727976       3.35458739      -2.08347218 
H      -2.13899188       3.48059842      -0.88102739 
C      -0.17888082       3.62071762      -0.29769952 
H       0.67090852       3.31378334      -0.65074112 
H      -0.18691689       4.58964165      -0.34336655 
C      -0.29582293       3.19330560       1.15898536 
H      -1.23460189       3.09662263       1.37907968 
H       0.06678934       3.89759005       1.71930678 
C       1.43635638      -2.86927022       0.69744784 
C      -0.98284483      -3.17543983      -0.09058934 
C       0.31499728      -3.83672243       0.34940304 
H       1.87659735      -2.59739919      -0.12197483 
H       2.09101570      -3.33600413       1.24095786 
H      -1.43607615      -2.83256268       0.69722350 
H      -1.55510799      -3.85342933      -0.48204652 
H       0.61971059      -4.42092475      -0.36134842 
H       0.13268784      -4.38990020       1.12359660 
