24
Properties=species:S:1:pos:R:3 2c24 h20 p=T pbc="F F F" h12=T v,=T c6=T o=T s4=T
V       0.21352650      -0.03340674       0.35258200 
S      -1.76976455       1.20234378       0.82950587 
S       1.33713478      -1.12862161      -1.47054009 
S       0.88229570       2.10126782      -0.62009430 
S      -0.97582331      -2.10006041       0.23494777 
O       1.11429220      -0.10564548       1.69585154 
C      -2.86510199       0.37188112       2.04085795 
H      -2.80755369       0.85272712       2.88112175 
H      -3.78004273       0.44913590       1.72499703 
C      -2.57876944      -1.10321569       2.31583306 
H      -1.71172265      -1.18207969       2.74361722 
H      -3.24587019      -1.44531011       2.93139121 
C      -2.58931076      -1.95328002       1.05267557 
H      -3.22058540      -1.56896132       0.42586896 
H      -2.90417837      -2.84259274       1.27949185 
C       2.88916297      -0.17131508      -1.55101683 
C       1.50884490       1.84746527      -2.31686592 
C       2.81619773       1.07571864      -2.41942235 
H       3.13839116       0.09119828      -0.65204435 
H       3.59133758      -0.74703537      -1.89353615 
H       0.83118295       1.37414677      -2.82713675 
H       1.63140495       2.71494063      -2.73262924 
H       3.54345611       1.66720975      -2.17336605 
H       2.95046262       0.81715486      -3.34340058 
