24
Properties=species:S:1:pos:R:3 2c24 h20 p=T pbc="F F F" h12=T v,=T c6=T o=T s4=T
V      -0.40329572      -0.06727372      -0.06205201 
S       0.55697742      -2.11440828       0.69629802 
S       0.20208610       2.20694927      -0.55923200 
S       0.69941970      -0.73161761      -2.13397208 
S      -0.33845437       0.89484922       2.12188097 
O      -1.96640773      -0.32165738      -0.39811767 
C      -0.13943810      -2.69313412       2.28905915 
H      -0.70984721      -3.45697493       2.11087779 
H       0.59347698      -3.00255470       2.84578834 
C      -0.94693032      -1.67204465       3.08833436 
H      -1.74803538      -1.44407837       2.59109094 
H      -1.22231632      -2.07363380       3.92729356 
C      -0.16505114      -0.39909256       3.38252009 
H       0.77350077      -0.62474697       3.46793340 
H      -0.46090134      -0.04303556       4.23525711 
C      -0.21227542       2.29945162      -2.33446484 
C       1.69907084       0.65238255      -2.78301344 
C       0.90598176       1.85757187      -3.26655302 
H      -0.99065212       1.74645209      -2.50029828 
H      -0.45186114       3.21490444      -2.54979559 
H       2.30866178       0.94479045      -2.08549717 
H       2.23761808       0.32408367      -3.51961395 
H       0.52295374       1.64760459      -4.13171974 
H       1.51652408       2.59956830      -3.39023577 
