24
Properties=species:S:1:pos:R:3 2c24 h20 p=T pbc="F F F" h12=T v,=T c6=T o=T s4=T
V      -0.21472353       0.29011849       0.20186309 
S       1.11818214       1.39538137      -1.43817825 
S      -0.70682728      -1.91355346       1.03097656 
S       1.93732637       0.15379669       1.34216325 
S      -1.76374654      -0.49781491      -1.43494382 
O      -1.00200565       1.40813752       1.06857565 
C       0.12657516       2.29387358      -2.68967078 
H       0.21071184       3.24460652      -2.51763636 
H       0.51375658       2.12224986      -3.56344926 
C      -1.36074350       1.95103385      -2.75173827 
H      -1.78366675       2.22941408      -1.92431496 
H      -1.76995026       2.44905400      -3.47664488 
C      -1.61689507       0.46550925      -2.96595859 
H      -0.89181898       0.09912952      -3.49428198 
H      -2.43503169       0.36204900      -3.47724403 
C      -0.14677579      -1.76939672       2.76223764 
C       2.25160893      -1.56204225       1.88358428 
C       1.32722342      -2.07969103       2.97575335 
H      -0.32139543      -0.86733380       3.07040960 
H      -0.67327001      -2.37329817       3.30989576 
H       2.17400327      -2.14692239       1.11188160 
H       3.16572666      -1.62180350       2.20172101 
H       1.60476565      -1.69667937       3.82167448 
H       1.43445533      -3.04032132       3.04139497 
