24
Properties=species:S:1:pos:R:3 2c24 h20 p=T pbc="F F F" h12=T v,=T c6=T o=T s4=T
V      -0.05453181      -0.36466536       0.18726746 
S       1.84044340       0.68022442       1.18989074 
S      -1.71400962       0.01532517      -1.51199883 
S       1.56156525      -0.77611704      -1.59293609 
S      -1.58267566       1.07093271       1.32888156 
O      -0.24109927      -1.83448867       0.83978747 
C       1.61553015       1.02477103       2.97525005 
H       2.16084393       0.39830075       3.47598530 
H       1.95646986       1.91552438       3.15738071 
C       0.18614388       0.94341116       3.50792607 
H      -0.12408810       0.02677064       3.44073070 
H       0.18395732       1.18967442       4.44617628 
C      -0.77781746       1.85110225       2.75615300 
H      -0.29280263       2.63211906       2.44977349 
H      -1.46381019       2.15358770       3.37209202 
C      -1.36844550      -1.36605356      -2.65396294 
C       0.87178692      -0.24752525      -3.19942610 
C      -0.30769792      -1.06660380      -3.70262381 
H      -1.08335263      -2.13327814      -2.13505257 
H      -2.19219675      -1.60795743      -3.10644377 
H       0.59261986       0.67982983      -3.12385655 
H       1.57679928      -0.28466196      -3.86423587 
H       0.02696281      -1.90604827      -4.05283142 
H      -0.72414387      -0.58993019      -4.43609031 
