24
Properties=species:S:1:pos:R:3 2c24 h20 p=T pbc="F F F" h12=T v,=T c6=T o=T s4=T
V       0.27937783      -0.10052114       0.28786658 
S       0.84882715      -1.27810256      -1.70637729 
S      -1.34937062       1.45184372       1.13822363 
S      -1.43125904      -1.83590086       0.39906723 
S       1.10112125       1.96883894      -0.57348979 
O       1.30480852      -0.54156564       1.46044579 
C       2.49221429      -0.81816378      -2.37311655 
H       3.10332907      -1.55259237      -2.20661945 
H       2.41223042      -0.72048874      -3.33588088 
C       3.11865711       0.45837171      -1.81496354 
H       3.31411487       0.32866013      -0.87370899 
H       3.95773338       0.62485960      -2.27234372 
C       2.21914454       1.67666347      -1.97285479 
H       1.68822358       1.56774370      -2.77619436 
H       2.77724472       2.46122387      -2.09307756 
C      -2.10936993       0.46574852       2.47303488 
C      -3.07215718      -1.08126073       0.67106929 
C      -3.26601789      -0.41536216       2.02542494 
H      -1.42709183      -0.09645192       2.87003205 
H      -2.42855506       1.07013742       3.16198874 
H      -3.22433742      -0.41831857      -0.02245886 
H      -3.74806068      -1.76894332       0.56791542 
H      -3.40490146      -1.10572902       2.69131917 
H      -4.07030071       0.12374784       1.99214403 
