24
Properties=species:S:1:pos:R:3 2c24 h20 p=T pbc="F F F" h12=T v,=T c6=T o=T s4=T
V       0.28650158      -0.25539132      -0.15399924 
S       0.27657219       1.70973378      -1.50535556 
S      -0.79882636      -1.20077356       1.77319588 
S      -1.74656770      -0.70751318      -1.42380316 
S       1.43493082       0.84634208       1.62553497 
O       1.33787444      -1.31249283      -0.78496820 
C       1.86951346       2.61446759      -1.47705275 
H       2.31066890       2.47840611      -2.32995197 
H       1.67797167       3.56311469      -1.39810074 
C       2.84829623       2.23198069      -0.36836149 
H       3.14043408       1.31739452      -0.50684096 
H       3.62906705       2.80487921      -0.42446906 
C       2.24326089       2.35550867       1.02338575 
H       1.59259970       3.07361476       1.01572280 
H       2.94530664       2.60113707       1.64649312 
C      -1.56876029      -2.68792488       1.04705095 
C      -3.11131475      -1.13754351      -0.28865870 
C      -2.95008332      -2.45632035       0.45303814 
H      -0.98627137      -3.03083155       0.35257189 
H      -1.63726741      -3.36907147       1.73492348 
H      -3.20265208      -0.42551481       0.36579150 
H      -3.93605434      -1.17083303      -0.79766755 
H      -3.14910240      -3.18071838      -0.15929271 
H      -3.60346350      -2.49061481       1.16755635 
