24
Properties=species:S:1:pos:R:3 2c24 h20 p=T pbc="F F F" h12=T v,=T c6=T o=T s4=T
V       0.22183718       0.34328045       0.06301140 
S       1.75528351      -1.46702935      -0.18050441 
S      -2.13890841       0.80422920       0.04990482 
S      -0.06647591      -0.66541276       2.26519224 
S      -0.23578934       0.40942831      -2.27913518 
O       1.05774671       1.68844363       0.39881141 
C       2.87132807      -1.28008095      -1.62144197 
H       3.75692888      -1.06071344      -1.29256961 
H       2.93350412      -2.13894385      -2.07015306 
C       2.47399198      -0.22923784      -2.65650769 
H       2.52446498       0.64977849      -2.24935696 
H       3.10754375      -0.25331544      -3.39067135 
C       1.07057533      -0.44244629      -3.20719015 
H       0.87977075      -1.39254234      -3.20967343 
H       1.04809159      -0.13536525      -4.12733148 
C      -2.38103307       1.43931616       1.74393670 
C      -1.84250334      -0.91009827       2.61428979 
C      -2.65385750       0.36555642       2.78660253 
H      -1.58887415       1.93202969       2.00641927 
H      -3.12518492       2.06223562       1.73828941 
H      -2.23027242      -1.42576753       1.88809919 
H      -1.92722064      -1.43895450       3.42270037 
H      -2.46881793       0.73238480       3.66438808 
H      -3.59536182       0.13893527       2.75778346 
