24
Properties=species:S:1:pos:R:3 2c24 h20 p=T pbc="F F F" h12=T v,=T c6=T o=T s4=T
V      -0.17374735      -0.30133329       0.22368226 
S       0.21034518      -1.16411365      -1.96630909 
S       0.12632186       1.70295147       1.51927726 
S      -2.01683314       0.80997770      -0.92445080 
S       2.13727149      -0.45237977       0.80318641 
O      -0.93446296      -1.43081007       1.09921883 
C       1.36848855      -2.58358355      -1.99111560 
H       0.85722860      -3.38900959      -2.16567240 
H       1.98078794      -2.46227874      -2.73490830 
C       2.19426454      -2.80866335      -0.72583248 
H       1.59877699      -3.04936931       0.00110917 
H       2.80021736      -3.55193470      -0.87188973 
C       3.00284572      -1.58351737      -0.32147976 
H       3.24861279      -1.09637268      -1.12234407 
H       3.82208031      -1.87939952       0.10603958 
C      -1.60272468       2.11128392       1.93804502 
C      -2.00406284       2.59677081      -0.54600551 
C      -2.31990860       2.95867173       0.89779201 
H      -2.09570363       1.28568868       2.05864250 
H      -1.61317405       2.58526911       2.78483388 
H      -1.12732728       2.95159084      -0.76752289 
H      -2.64878710       3.03768213      -1.12074149 
H      -3.27558290       2.87380562       1.03488520 
H      -2.08605336       3.88780339       1.04147269 
