24
Properties=species:S:1:pos:R:3 2c24 h20 p=T pbc="F F F" h12=T v,=T c6=T o=T s4=T
V      -0.34060581      -0.18913972       0.13869930 
S      -0.94502492       2.04475252      -0.43782665 
S       1.56176250      -1.66094055       0.16241516 
S       0.61322208       0.94798853       2.07450368 
S      -0.23335444      -0.86297609      -2.14907033 
O      -1.63520495      -0.92983368       0.76826730 
C      -2.18940785       2.13344733      -1.77963534 
H      -3.03694188       2.39896439      -1.39007830 
H      -1.92147544       2.83455343      -2.39568359 
C      -2.41465203       0.85371883      -2.58279677 
H      -2.79668628       0.17859502      -2.00034796 
H      -3.05440162       1.03263378      -3.28967282 
C      -1.13375636       0.31018417      -3.20099066 
H      -0.54850494       1.05483040      -3.40611941 
H      -1.35479998      -0.12943107      -4.03725767 
C       1.69674971      -2.02992062       1.94492349 
C       2.34466777       0.42093787       2.32011915 
C       2.53057264      -1.03148830       2.73385785 
H       0.80533812      -2.05736268       2.32414874 
H       2.08742591      -2.91200307       2.05039942 
H       2.83161970       0.57007429       1.49291387 
H       2.74530192       0.98664705       2.99824820 
H       2.30709768      -1.11547247       3.67317451 
H       3.46597589      -1.26347481       2.63475648 
