24
Properties=species:S:1:pos:R:3 2c24 h20 p=T pbc="F F F" h12=T v,=T c6=T o=T s4=T
V      -0.03113379       0.28235733      -0.30054728 
S       2.22500461       0.30333474       0.47235543 
S      -2.12714068      -0.83162285       0.08877083 
S      -0.38071169       1.50076342       1.78355175 
S       0.28661834      -1.75859635      -1.49762283 
O      -0.20632218       1.44004073      -1.41860297 
C       3.43678446      -0.15823217      -0.82199838 
H       3.91216752       0.64288656      -1.09179024 
H       4.08697266      -0.76173655      -0.42716835 
C       2.87117699      -0.82147000      -2.07647518 
H       2.31101453      -0.18343612      -2.54564438 
H       3.60407768      -1.06206361      -2.66463768 
C       2.05403246      -2.06883799      -1.76884678 
H       2.41961844      -2.49120874      -0.97698512 
H       2.14997612      -2.69250116      -2.50593797 
C      -3.17593786       0.56815555       0.61064118 
C      -1.74651034       0.74308903       2.73040818 
C      -3.12552861       0.87236831       2.10042597 
H      -2.90159970       1.35959690       0.12326180 
H      -4.09476526       0.37605833       0.36431336 
H      -1.55042796      -0.20065912       2.85092190 
H      -1.77243251       1.14842376       3.61099061 
H      -3.44603488       1.77586345       2.24284242 
H      -3.73205247       0.27207414       2.55911298 
