24
Properties=species:S:1:pos:R:3 2c24 h20 p=T pbc="F F F" h12=T v,=T c6=T o=T s4=T
V      -0.22659579       0.07619388       0.33744997 
S       0.24336824       2.17202607      -0.69917938 
S       0.17446113      -2.27836916       0.05293012 
S       2.09744725       0.30765637       1.04132207 
S      -1.86402952      -0.48901613      -1.30535148 
O      -1.03906574       0.34845703       1.71103495 
C      -1.26149832       3.05718987      -1.25475826 
H      -1.41053049       3.80641478      -0.65724729 
H      -1.09020947       3.42113852      -2.13853114 
C      -2.54794661       2.23592422      -1.31864718 
H      -2.79512775       1.96605348      -0.42028188 
H      -3.26126562       2.79252948      -1.66840483 
C      -2.41515466       0.99561798      -2.19174170 
H      -1.78470380       1.18366193      -2.90326559 
H      -3.27500283       0.81090685      -2.60162860 
C       1.11202591      -2.65987577       1.57185367 
C       3.02336212      -1.21897556       0.65649724 
C       2.61399379      -2.44751131       1.45549636 
H       0.77539553      -2.10493323       2.29150516 
H       0.94752438      -3.58521140       1.81375395 
H       2.91291439      -1.41548796      -0.28839250 
H       3.96654472      -1.05375277       0.80979959 
H       2.98609098      -2.37329876       2.34731830 
H       3.00555346      -3.23042217       1.04034619 
