24
Properties=species:S:1:pos:R:3 2c24 h20 p=T pbc="F F F" h12=T v,=T c6=T o=T s4=T
V      -0.22519385      -0.15126998      -0.31213582 
S      -1.67267161       1.17973322       1.03738921 
S       2.06657957      -0.86973057      -0.44387153 
S      -0.52809391      -1.71607718       1.53443312 
S       0.81976261       1.76899878      -1.27134492 
O      -1.09821651      -0.82944345      -1.49487945 
C      -2.37801116       2.61473560       0.14292260 
H      -3.31484205       2.43336503      -0.03034172 
H      -2.33621992       3.38770077       0.72912335 
C      -1.71174422       2.98413476      -1.18113966 
H      -1.85139764       2.26445833      -1.81639685 
H      -2.13571525       3.78077398      -1.53691817 
C      -0.21746191       3.24015785      -1.04021454 
H      -0.04727616       3.60387195      -0.15825995 
H       0.04544829       3.91039059      -1.69069948 
C       1.87524966      -2.67904684      -0.29734065 
C       1.09459441      -2.31914059       2.11685109 
C       1.85425531      -3.19682417       1.13304778 
H       1.05003486      -2.93980084      -0.73346835 
H       2.60550403      -3.10762026      -0.77155147 
H       1.64781505      -1.55096199       2.33475247 
H       0.96051675      -2.82126172       2.93556420 
H       1.45566531      -4.08024001       1.13660436 
H       2.76790717      -3.28786784       1.44219077 
