24
Properties=species:S:1:pos:R:3 2c24 h20 p=T pbc="F F F" h12=T v,=T c6=T o=T s4=T
V       0.11779188      -0.39641715       0.00146904 
S       2.06708226       0.93232943       0.35172417 
S      -2.25342143      -0.17825463      -0.33841015 
S       0.43848225       0.37516602      -2.29025607 
S      -0.65136122      -0.04559191       2.23412964 
O       0.55979929      -1.95141140      -0.08566688 
C       2.87369134       0.62059832       1.96696772 
H       3.69196596       0.12532241       1.80666693 
H       3.12376094       1.47659642       2.35113622 
C       2.04951634      -0.14357235       3.00151449 
H       1.89453051      -1.04497602       2.67834306 
H       2.55692767      -0.20673661       3.82583715 
C       0.70937715       0.51682626       3.29509235 
H       0.80710601       1.47539529       3.19170220 
H       0.47363828       0.34312797       4.22014394 
C      -2.43980706      -0.92350774      -1.99417644 
C      -1.12342517       1.05890383      -2.94520748 
C      -2.24213593       0.04772162      -3.14837957 
H      -1.79911048      -1.64514788      -2.08318697 
H      -3.32754048      -1.30963562      -2.06241982 
H      -1.43735825       1.74685604      -2.33545325 
H      -0.93920625       1.48736876      -3.79542792 
H      -2.05592266      -0.46065865      -3.95223546 
H      -3.07062557       0.52870380      -3.29287565 
