24
Properties=species:S:1:pos:R:3 2c24 h20 p=T pbc="F F F" h12=T v,=T c6=T o=T s4=T
V      -0.06200173      -0.38532181      -0.13677182 
S      -0.24555442       1.07900409      -2.01028116 
S       0.36704960      -0.34371853       2.22964941 
S      -2.28228326       0.51112903       0.32896706 
S       2.31747893      -0.19757752      -0.08910576 
O      -0.38706386      -1.89425794      -0.62505117 
C       1.01427084       0.76137524      -3.30208549 
H       0.57462184       0.34120555      -4.05755497 
H       1.35871734       1.61670882      -3.60641105 
C       2.19948306      -0.11207090      -2.89481153 
H       1.88026414      -1.00768982      -2.70257475 
H       2.81916107      -0.17094576      -3.63878516 
C       2.93876298       0.42457507      -1.67671317 
H       2.87519865       1.39155728      -1.67689456 
H       3.87730790       0.19133623      -1.75543692 
C      -1.19532438      -1.02686970       2.88079901 
C      -2.37186440       1.09552581       2.05710744 
C      -2.28537954       0.00768512       3.11748714 
H      -1.52752879      -1.68991608       2.25694871 
H      -1.01038981      -1.47974715       3.71896591 
H      -1.64970690       1.72806811       2.20546920 
H      -3.20622933       1.57496280       2.17697794 
H      -3.13975467      -0.44765731       3.16239356 
H      -2.13250986       0.42641034       3.97767207 
