24
Properties=species:S:1:pos:R:3 2c24 h20 p=T pbc="F F F" h12=T v,=T c6=T o=T s4=T
V      -0.08381958       0.24272061      -0.32416759 
S       2.06600388       0.86431164       0.50037034 
S      -1.87068505      -1.30901387       0.10594545 
S      -0.80537330       1.49745561       1.63929547 
S       0.76250517      -1.74765205      -1.33490954 
O      -0.47871612       1.23522078      -1.54070796 
C       3.40928145       0.60962514      -0.71927977 
H       3.69245182       1.47839391      -1.04427715 
H       4.16585100       0.21209772      -0.25838126 
C       3.07390388      -0.26419811      -1.92653412 
H       2.39981693       0.18267615      -2.46216377 
H       3.86848521      -0.36599635      -2.47356380 
C       2.56334201      -1.64400595      -1.53443184 
H       2.98300454      -1.90420986      -0.70060192 
H       2.83742112      -2.28094150      -2.21314982 
C      -3.24403496      -0.16647516       0.48040389 
C      -1.99314290       0.50867537       2.61270727 
C      -3.33387579       0.25417542       1.93969375 
H      -3.14394016       0.62795216      -0.06553177 
H      -4.07904634      -0.59199902       0.22839602 
H      -1.58420605      -0.34822364       2.81795637 
H      -2.15385217       0.96215810       3.45468087 
H      -3.86573892       1.06237578       1.99664964 
H      -3.80041516      -0.43729331       2.43247166 
