24
Properties=species:S:1:pos:R:3 2c24 h20 p=T pbc="F F F" h12=T v,=T c6=T o=T s4=T
V       0.23651876      -0.32279310       0.10434144 
S       1.28373736       1.64072327       0.96219681 
S      -1.70823960      -1.01256582      -1.13173860 
S       1.16756799       0.52508495      -1.98478207 
S      -1.43926754      -0.29974744       1.80453477 
O       1.18491273      -1.59604270       0.42112949 
C       1.42092058       1.64728544       2.78920089 
H       2.34994011       1.49779746       3.02402844 
H       1.18035549       2.53232777       3.10807623 
C       0.56984643       0.62328680       3.53793839 
H       0.88193965      -0.26830499       3.31736901 
H       0.68764308       0.75157831       4.49220726 
C      -0.91196443       0.72831821       3.20403376 
H      -1.11975551       1.65357668       3.00449763 
H      -1.42548688       0.47360366       3.98690000 
C      -0.93772558      -1.76418262      -2.60587703 
C      -0.12625819       0.57326051      -3.27307803 
C      -0.64020267      -0.78387263      -3.73060706 
H      -0.10934537      -2.19064958      -2.33924689 
H      -1.52749202      -2.45603734      -2.94548728 
H      -0.87711430       1.08887245      -2.93545123 
H       0.22506729       1.04413122      -4.04459911 
H       0.01884376      -1.18024758      -4.32039930 
H      -1.44959951      -0.64983281      -4.24590129 
