24
Properties=species:S:1:pos:R:3 2c24 h20 p=T pbc="F F F" h12=T v,=T c6=T o=T s4=T
V      -0.17966986      -0.10029953       0.35872328 
S       2.16310865      -0.47583030       0.60026964 
S      -1.79069352       0.66441530      -1.25545741 
S      -0.02178331      -2.18300962      -0.90126776 
S       0.07632147       2.26793816       0.51799311 
O      -0.92206598      -0.56761534       1.71939747 
C       2.93296483       0.56858264       1.89384194 
H       3.14004934       0.00473951       2.65526486 
H       3.77413600       0.90868105       1.54798486 
C       2.10737976       1.75425286       2.38993031 
H       1.31847469       1.42102174       2.84553404 
H       2.63134260       2.25735804       3.03282374 
C       1.67607211       2.68631993       1.26586982 
H       2.35466024       2.67227451       0.57419366 
H       1.62887738       3.59096804       1.61350298 
C      -2.83526957      -0.82120910      -1.43844596 
C      -0.83375448      -1.99483649      -2.52647766 
C      -2.34376507      -1.81256927      -2.48255972 
H      -2.88536855      -1.27228171      -0.58217318 
H      -3.73382330      -0.54136999      -1.67532943 
H      -0.44415332      -1.22788470      -2.97772961 
H      -0.63489097      -2.77819700      -3.06238178 
H      -2.75328230      -2.67361615      -2.30876651 
H      -2.64464036      -1.51727929      -3.35485322 
