24
Properties=species:S:1:pos:R:3 2c24 h20 p=T pbc="F F F" h12=T v,=T c6=T o=T s4=T
V       0.32701946      -0.22392993       0.11805635 
S      -0.18242089      -0.82944336      -2.13178880 
S      -0.42385242       1.24023192       1.87253257 
S      -1.62110600      -1.62405726       0.55923379 
S       1.29755522       1.85274170      -0.54898448 
O       1.54987629      -1.14822230       0.63889715 
C       1.17344990      -0.45504472      -3.30577613 
H       1.58880989      -1.29186685      -3.56610810 
H       0.78350025      -0.06438630      -4.10463673 
C       2.26836059       0.48349187      -2.80196275 
H       2.74579782       0.05099304      -2.07671286 
H       2.90099969       0.64503647      -3.51934337 
C       1.72401518       1.81861468      -2.31265459 
H       0.93259578       2.03781136      -2.82714773 
H       2.38674139       2.50606275      -2.48491447 
C      -0.88664274       0.03353255       3.16148777 
C      -2.79802630      -0.73748999       1.63852551 
C      -2.31410285      -0.48248876       3.05841093 
H      -0.28011975      -0.72070160       3.11208936 
H      -0.76878144       0.44796280       4.03107319 
H      -3.00873673       0.11687210       1.22706596 
H      -3.62081138      -1.24887414       1.68216695 
H      -2.38143340      -1.30895316       3.56014130 
H      -2.90619650       0.16097284       3.47554439 
