24
Properties=species:S:1:pos:R:3 2c24 h20 p=T pbc="F F F" h12=T v,=T c6=T o=T s4=T
V      -0.01221450      -0.41330607      -0.00724881 
S      -2.26375912       0.36957870       0.06770073 
S       2.24820942       0.40712415      -0.06331380 
S      -0.09534547       0.20459294       2.35102957 
S       0.22472776       0.16785139      -2.31062949 
O      -0.02419888      -2.03110971       0.05223301 
C      -3.24518791      -0.11023736      -1.40314266 
H      -3.86884811      -0.80412622      -1.13831416 
H      -3.76860583       0.65851118      -1.68227050 
C      -2.45700687      -0.61408248      -2.61079286 
H      -2.02358735      -1.45021768      -2.37838290 
H      -3.07309000      -0.79123161      -3.33882006 
C      -1.40320940       0.37739725      -3.08488794 
H      -1.71913999       1.27547441      -2.90394508 
H      -1.30337934       0.28859934      -4.04593593 
C       2.91416332      -0.29549156       1.48411644 
C       1.33565669       1.25816648       2.77320155 
C       2.69094316       0.56880698       2.71606854 
H       2.50343807      -1.16041153       1.63377506 
H       3.86771806      -0.43885434       1.37455829 
H       1.34970840       2.01556030       2.16509828 
H       1.20692746       1.60774432       3.66853262 
H       2.78824168       0.01427581       3.50495279 
H       3.38328869       1.24574212       2.74823278 
