24
Properties=species:S:1:pos:R:3 2c24 h20 p=T pbc="F F F" h12=T v,=T c6=T o=T s4=T
V       0.10181206       0.18015234       0.35805458 
S       1.07771262       1.46822964      -1.39592779 
S      -1.25783938      -1.77355727       0.70465524 
S       1.96041246      -1.30465414      -0.18152043 
S      -2.08202741       1.03716602      -0.08446197 
O       0.55612487       0.81086571       1.77818516 
C       0.44946759       3.18790573      -1.46541534 
H       1.14814046       3.77913390      -1.14467648 
H       0.28398944       3.41283735      -2.39540229 
C      -0.82244708       3.47900564      -0.67105889 
H      -0.63516867       3.37280175       0.27479336 
H      -1.08426336       4.40104005      -0.82028561 
C      -1.98062040       2.56786282      -1.05412630 
H      -1.89558619       2.33602842      -1.99120529 
H      -2.81061962       3.05877671      -0.94656604 
C      -0.11918406      -2.82621295       1.66750719 
C       1.35032359      -3.00906318      -0.42399705 
C       0.80661148      -3.68954406       0.82364273 
H       0.42081153      -2.25817898       2.23752618 
H      -0.64387926      -3.40513139       2.24315544 
H       0.64875271      -2.99173806      -1.09565960 
H       2.07534985      -3.54826935      -0.77611525 
H       1.55449403      -3.96967520       1.37274055 
H       0.32647058      -4.48728314       0.55588325 
