24
Properties=species:S:1:pos:R:3 2c24 h20 p=T pbc="F F F" h12=T v,=T c6=T o=T s4=T
V       0.00378142      -0.26191164       0.32001818 
S       2.24302049      -0.07317206      -0.47883406 
S      -2.21075384       0.56793774      -0.11924131 
S      -0.20941311      -1.65835703      -1.66861835 
S       0.08423965       1.88233091       1.36653552 
O      -0.02845332      -1.34948348       1.51881706 
C       3.39794933       0.61842357       0.76400185 
H       3.96573528      -0.10012447       1.08318167 
H       3.97058801       1.26432905       0.31931766 
C       2.76394378       1.29847387       1.97605663 
H       2.28512043       0.63422396       2.49614240 
H       3.46609920       1.66467879       2.53626691 
C       1.80398762       2.41626641       1.59224502 
H       2.11351785       2.82106909       0.76797512 
H       1.82916176       3.09782528       2.28239582 
C      -3.08960196      -0.97880650      -0.52779000 
C      -1.65943094      -1.13554249      -2.64847895 
C      -3.01062819      -1.38043009      -1.99305682 
H      -2.72158145      -1.69583758       0.01036128 
H      -4.02351055      -0.87873406      -0.28361226 
H      -1.57656476      -0.18631891      -2.83752982 
H      -1.64148726      -1.60285557      -3.49800241 
H      -3.22302282      -2.32311842      -2.06747047 
H      -3.68583992      -0.88965295      -2.48483419 
