24
Properties=species:S:1:pos:R:3 2c24 h20 p=T pbc="F F F" h12=T v,=T c6=T o=T s4=T
V       0.09837515       0.28566064      -0.28238975 
S       1.12000984       0.92878980       1.77445896 
S      -1.27614323      -1.45094398      -1.22082936 
S      -1.88721501       1.13804315       0.84945064 
S       1.70579690      -1.43770440      -0.66403939 
O       0.39273442       1.43163726      -1.38740584 
C       2.94917716       0.98527626       1.68635435 
H       3.22418559       1.91529647       1.68719605 
H       3.30424908       0.57750149       2.49288807 
C       3.59271941       0.29955876       0.48254658 
H       3.33908586       0.77466418      -0.32425811 
H       4.55761147       0.35216106       0.56728238 
C       3.18707758      -1.16177894       0.34751272 
H       3.02930420      -1.52259889       1.23295700 
H       3.92596142      -1.65427055      -0.04359728 
C      -2.74734684      -0.49716632      -1.72834479 
C      -3.23760816      -0.08802546       0.75349415 
C      -3.79760292      -0.33194865      -0.64013043 
H      -2.46159857       0.38196180      -2.01931070 
H      -3.15627363      -0.93923364      -2.48938216 
H      -2.91177086      -0.93237137       1.10639990 
H      -3.96159807       0.20599427       1.32776291 
H      -4.37299569       0.41153726      -0.87563424 
H      -4.34675630      -1.12976550      -0.61695933 
