24
Properties=species:S:1:pos:R:3 2c24 h20 p=T pbc="F F F" h12=T v,=T c6=T o=T s4=T
V       0.40670866      -0.01314486      -0.07374906 
S       0.05976643      -0.75319682       2.16677172 
S      -0.81768787       0.75537351      -1.99624691 
S      -0.00339053       2.15863198       0.95842868 
S      -0.38231521      -2.07242919      -0.98820931 
O       1.99880174       0.03026670      -0.36413743 
C       0.59831137      -2.48157995       2.44867120 
H       1.41331896      -2.46334342       2.97402632 
H      -0.07996799      -2.92732690       2.98168128 
C       0.85471640      -3.32516769       1.20122403 
H       1.61203138      -2.95582614       0.72054766 
H       1.08613434      -4.22747132       1.47188569 
C      -0.34708117      -3.38166122       0.26806895 
H      -1.15515804      -3.32283640       0.79971400 
H      -0.35183736      -4.24209408      -0.18036947 
C      -0.13359724       2.43551781      -2.19833334 
C      -1.26703327       3.07443419       0.00946773 
C      -0.84537741       3.50765192      -1.38688855 
H       0.80101308       2.42250447      -1.94237693 
H      -0.17702780       2.67727994      -3.13720893 
H      -2.05825761       2.51612719      -0.06727709 
H      -1.51752310       3.86439277       0.51306865 
H      -0.25963921       4.27572801      -1.30764176 
H      -1.63373560       3.79107379      -1.87349050 
