24
Properties=species:S:1:pos:R:3 2c24 h20 p=T pbc="F F F" h12=T v,=T c6=T o=T s4=T
V      -0.17779024      -0.25867227       0.26926369 
S      -1.33727031       1.82133150       0.40029592 
S       1.63967618      -1.31177658      -0.90272285 
S       1.47726737       0.99052587       1.55397191 
S      -1.21618036      -0.82766321      -1.80376392 
O      -0.79499517      -1.26624946       1.37597801 
C      -3.10417340       1.69462721      -0.06747080 
H      -3.63748327       1.76999765       0.73904505 
H      -3.32354820       2.45376122      -0.63177855 
C      -3.52364662       0.42049674      -0.79832100 
H      -3.42089526      -0.33546739      -0.19919720 
H      -4.46200505       0.48632240      -1.03520555 
C      -2.71131454       0.16826921      -2.06116905 
H      -2.45341201       1.02239135      -2.43939741 
H      -3.27620431      -0.28192806      -2.70900106 
C       2.76915470      -1.69870765       0.47795321 
C       3.12535757       0.82040738       0.78528995 
C       3.72872648      -0.57534392       0.84102497 
H       2.23965390      -1.91864533       1.25925713 
H       3.28704292      -2.48537602       0.24392930 
H       3.05969196       1.09039086      -0.14553193 
H       3.73408830       1.43534110       1.22312214 
H       4.06276518      -0.73121773       1.73736848 
H       4.48601208      -0.60868944       0.23768041 
