24
Properties=species:S:1:pos:R:3 2c24 h20 p=T pbc="F F F" h12=T v,=T c6=T o=T s4=T
V       0.11381977      -0.39214986      -0.06547665 
S      -1.81215638       0.02929298      -1.40748297 
S       1.57561808       0.70511710       1.49814613 
S      -1.57263155      -0.48327007       1.69457048 
S       1.53631617       0.84289543      -1.53197429 
O       0.53173277      -1.94719774      -0.23324186 
C      -1.49314798      -0.14169126      -3.20353537 
H      -1.91573645      -0.95901767      -3.51007162 
H      -1.92676416       0.59745281      -3.66014903 
C      -0.02754911      -0.17338479      -3.63309760 
H       0.38787193      -0.97535278      -3.27917438 
H       0.01724759      -0.21811623      -4.60106258 
C       0.75466834       1.04327502      -3.15753256 
H       0.15404189       1.80288869      -3.12106356 
H       1.44375590       1.24405366      -3.81045723 
C       1.31616440      -0.31082549       2.99221715 
C      -1.08126149       0.58933149       3.08887852 
C       0.14789127       0.13188018       3.86037311 
H       1.16987492      -1.22956892       2.72075927 
H       2.12573904      -0.28855118       3.52692761 
H      -0.91432938       1.48256551       2.74551415 
H      -1.82591427       0.65096856       3.70701016 
H      -0.10627475      -0.60490976       4.43643769 
H       0.44344117       0.85829758       4.42921939 
