24
Properties=species:S:1:pos:R:3 2c24 h20 p=T pbc="F F F" h12=T v,=T c6=T o=T s4=T
V       0.04439684      -0.32534557      -0.25140172 
S       2.18096848       0.14352752       0.69896600 
S      -2.22915445       0.45892844      -0.21085404 
S       0.61182672       1.62744129      -1.59855935 
S      -0.75894694      -1.30331322       1.77286759 
O       0.20346277      -1.54072677      -1.30900132 
C       2.83727903      -1.23190786       1.71594199 
H       3.56012682      -1.65339154       1.22562525 
H       3.21777369      -0.85520773       2.52598755 
C       1.83888474      -2.31600885       2.11774063 
H       1.54061898      -2.78155092       1.32068539 
H       2.28515560      -2.96076521       2.68878826 
C       0.62639565      -1.76058306       2.85235599 
H       0.89984201      -0.97784378       3.35399466 
H       0.31768567      -2.42486856       3.48866352 
C      -2.46410324       0.94179829      -1.95537104 
C      -0.76729787       2.82477122      -1.57782447 
C      -2.03807055       2.36622580      -2.27793518 
H      -1.95994411       0.33302774      -2.51608617 
H      -3.40228842       0.83995797      -2.18177697 
H      -0.98230941       3.02993608      -0.65299483 
H      -0.46712148       3.64718918      -1.99485737 
H      -1.90663296       2.44069055      -3.23526968 
H      -2.75840530       2.96677595      -2.03488080 
