24
Properties=species:S:1:pos:R:3 2c24 h20 p=T pbc="F F F" h12=T v,=T c6=T o=T s4=T
V       0.29361495       0.11026274      -0.26954783 
S       1.31723046      -1.27699379       1.37839324 
S      -1.84442341       1.04174032      -0.85853580 
S       0.41813105       1.74099371       1.54025855 
S      -0.75713824      -1.74982522      -1.33511748 
O       1.43670730       0.63043210      -1.29118086 
C       2.01685444      -2.82327313       0.68821014 
H       2.98352622      -2.74508374       0.68807727 
H       1.78540440      -3.55350809       1.28490164 
C       1.56950305      -3.20069456      -0.72279590 
H       1.89987273      -2.53583227      -1.34713792 
H       1.96369178      -4.05422322      -0.96168484 
C       0.05607728      -3.30011957      -0.85675261 
H      -0.31127383      -3.59418847      -0.00959755 
H      -0.15318198      -3.97745023      -1.51924646 
C      -1.49033271       2.82890373      -0.74731306 
C      -1.20973636       2.53300471       1.78270401 
C      -1.67710227       3.42325192       0.64063959 
H      -0.57590861       2.98186210      -1.02946865 
H      -2.07076871       3.29927920      -1.36671881 
H      -1.87272224       1.83667560       1.92129664 
H      -1.17530173       3.06562060       2.59235096 
H      -1.19353730       4.26196196       0.68581228 
H      -2.61687324       3.62121899       0.76814494 
