24
Properties=species:S:1:pos:R:3 2c24 h20 p=T pbc="F F F" h12=T v,=T c6=T o=T s4=T
V       0.19231785       0.27150001       0.24561195 
S      -1.91987035      -0.22185650       1.23719629 
S       1.53343612      -0.29562640      -1.66894667 
S      -1.21510830       1.60648546      -1.23329046 
S       1.11629869      -1.82473548       0.91755272 
O       0.93316547       1.39981386       1.13949282 
C      -1.77837710      -1.00231793       2.88876095 
H      -2.03485695      -0.34744938       3.55654325 
H      -2.41917884      -1.73033079       2.93591382 
C      -0.40368673      -1.55229792       3.26460222 
H       0.22213417      -0.81475824       3.33789870 
H      -0.46117859      -1.98045522       4.13312962 
C       0.12836412      -2.55727775       2.25206840 
H      -0.62200142      -3.02832863       1.85943923 
H       0.67358562      -3.20985546       2.71933727 
C       1.68668705       1.33077197      -2.48322320 
C      -0.82582019       1.22904911      -2.97742638 
C       0.55559084       1.66328599      -3.44478495 
H       1.72453863       2.01710080      -1.80006914 
H       2.52549264       1.35583260      -2.97066516 
H      -0.90840393       0.27031376      -3.11023784 
H      -1.48884017       1.65776568      -3.54045410 
H       0.54471725       2.62140902      -3.59036034 
H       0.74017932       1.24091098      -4.29692608 
