24
Properties=species:S:1:pos:R:3 2c24 h20 p=T pbc="F F F" h12=T v,=T c6=T o=T s4=T
V      -0.00578774       0.32729534       0.25272100 
S      -1.22556700       0.91537907      -1.71050982 
S       1.20712553      -1.51348715       1.21507568 
S       1.88492362       0.68828275      -1.24563994 
S      -1.78505039      -1.03350072       1.07849743 
O       0.06431421       1.61957060       1.22538781 
C      -2.98521252       1.30343400      -1.37904757 
H      -3.10585959       2.26182372      -1.46565804 
H      -3.52380236       0.88032319      -2.06734344 
C      -3.53021768       0.87605739      -0.01749446 
H      -3.07976157       1.38299827       0.67611147 
H      -4.47562661       1.08892751       0.02554157 
C      -3.34524593      -0.61076624       0.25348203 
H      -3.38912033      -1.08708709      -0.58930414 
H      -4.08139259      -0.91984235       0.80486613 
C       2.87259003      -0.78569937       1.38317306 
C       3.02169607      -0.73956004      -1.17473927 
C       3.74973423      -0.92697375       0.14818123 
H       2.77967857       0.15624931       1.59121062 
H       3.32167394      -1.20844339       2.13246183 
H       2.51429439      -1.54606096      -1.36376899 
H       3.68280897      -0.64176455      -1.87741940 
H       4.46572276      -0.27590903       0.20095753 
H       4.15470124      -1.80706573       0.15578901 
