24
Properties=species:S:1:pos:R:3 2c24 h20 p=T pbc="F F F" h12=T v,=T c6=T o=T s4=T
V       0.25489415       0.25995532      -0.19615261 
S      -1.97552836       1.00275513      -0.59795234 
S       1.46772099      -1.46450802       0.96188131 
S      -0.38273695      -1.41084888      -1.85507599 
S       0.24116556       1.09118114       2.04177575 
O       1.27338341       1.20738797      -1.02441666 
C      -2.30932028       2.67867383       0.06286963 
H      -2.36464830       3.29391461      -0.68478371 
H      -3.17959492       2.66698596       0.49337913 
C      -1.29190149       3.23086304       1.05959143 
H      -0.44403223       3.36004539       0.60636017 
H      -1.59546457       4.09679794       1.37418648 
C      -1.08091356       2.31550594       2.25787887 
H      -1.90977630       1.84766186       2.44009722 
H      -0.87453483       2.86136109       3.03306551 
C       2.30837463      -2.29558306      -0.42891685 
C       0.00936639      -3.08539087      -1.24011449 
C       1.49201655      -3.39425041      -1.09302131 
H       2.53410290      -1.63051670      -1.09668400 
H       3.13883783      -2.67916941      -0.10485681 
H      -0.41676910      -3.20272699      -0.37508662 
H      -0.38053334      -3.73473998      -1.84568658 
H       1.86026503      -3.56440835      -1.97321987 
H       1.58816025      -4.20700877      -0.57456370 
