24
Properties=species:S:1:pos:R:3 2c24 h20 p=T pbc="F F F" h12=T v,=T c6=T o=T s4=T
V      -0.24636295      -0.15119342      -0.29575241 
S       1.63198535      -1.60929563      -0.11210942 
S      -1.15041011       1.85847372       0.66845816 
S       1.39392656       1.23477616      -1.45278548 
S      -1.22627849      -0.98818700       1.71388822 
O      -1.18713575      -0.66864848      -1.50742775 
C       1.17873769      -3.31232554       0.38895135 
H       1.27391124      -3.89108022      -0.38341705 
H       1.81744622      -3.61216564       1.05603478 
C      -0.22700879      -3.50215318       0.95582925 
H      -0.87596914      -3.31974528       0.25828587 
H      -0.33578757      -4.42676503       1.22826997 
C      -0.51103580      -2.59863427       2.14799936 
H       0.31725805      -2.45041824       2.62868257 
H      -1.12088881      -3.05757006       2.74710001 
C      -1.18159285       2.96119830      -0.78575294 
C       1.38076147       2.92675347      -0.76499700 
C       0.11196753       3.72535969      -1.02513571 
H      -1.37846874       2.43094397      -1.57267715 
H      -1.90336728       3.60040341      -0.67493324 
H       1.51686543       2.86930263       0.19511109 
H       2.13202460       3.41538854      -1.13544686 
H       0.12424839       4.03286587      -1.94415655 
H       0.11800800       4.50888469      -0.45533737 
