24
Properties=species:S:1:pos:R:3 2c24 h20 p=T pbc="F F F" h12=T v,=T c6=T o=T s4=T
V       0.14315272      -0.25414305      -0.29315909 
S      -0.46240709      -1.59410319       1.58454784 
S       0.17833886       2.03998338      -1.01531638 
S       2.05745897       0.24692989       1.13321547 
S      -2.13518683       0.08006857      -0.92317471 
O       0.78994980      -1.21258444      -1.42630250 
C      -1.79896662      -2.79205814       1.21669085 
H      -1.40894298      -3.67918311       1.17849695 
H      -2.42641904      -2.78316505       1.95768839 
C      -2.58243713      -2.56042061      -0.07405556 
H      -1.98837054      -2.68535126      -0.83067050 
H      -3.28853392      -3.22242883      -0.13836937 
C      -3.19928254      -1.17046158      -0.15023250 
H      -3.41811554      -0.87899349       0.74768371 
H      -4.02798424      -1.22557804      -0.65190971 
C       1.96526550       2.29398069      -1.28749711 
C       2.30177774       2.05374340       1.24159808 
C       2.73544916       2.73066532      -0.05029508 
H       2.34940540       1.46706211      -1.61585924 
H       2.08144191       2.96572701      -1.97820866 
H       1.47002690       2.45916082       1.53733393 
H       2.96962327       2.23375344       1.92128355 
H       3.67701042       2.54988353      -0.19203615 
H       2.63491412       3.68857551       0.05419808 
