24
Properties=species:S:1:pos:R:3 2c24 h20 p=T pbc="F F F" h12=T v,=T c6=T o=T s4=T
V       0.37109328      -0.05248772       0.17480977 
S       0.38685857      -1.21858733      -1.90556094 
S      -1.06857155       1.30439166       1.54302351 
S      -0.94979590      -1.99097732       0.84391122 
S       0.56537699       2.07315130      -0.89447071 
O       1.78210979      -0.31227569       0.92481843 
C       1.62994100      -0.57306402      -3.08659945 
H       2.35476370      -1.21479081      -3.14479490 
H       1.21686842      -0.52232213      -3.96389603 
C       2.22930990       0.79406540      -2.76221957 
H       2.74699919       0.72585877      -1.94470223 
H       2.83372172       1.05161657      -3.47588447 
C       1.17331696       1.87786151      -2.59324553 
H       0.42207563       1.67095851      -3.16937283 
H       1.54634433       2.72356535      -2.88837253 
C      -1.19191425       0.27756609       3.04705796 
C      -2.48829463      -1.44741568       1.66462795 
C      -2.30125528      -0.76290558       3.01063847 
H      -0.34621744      -0.17571557       3.18311727 
H      -1.33814717       0.86018004       3.80929115 
H      -2.95410527      -0.83610082       1.07053450 
H      -3.05963946      -2.22076980       1.79065217 
H      -2.11216659      -1.44040088       3.67738862 
H      -3.13454598      -0.33497832       3.25786896 
