24
Properties=species:S:1:pos:R:3 2c24 h20 p=T pbc="F F F" h12=T v,=T c6=T o=T s4=T
V      -0.32102165       0.26006323       0.01832654 
S      -1.19305348      -1.95945079       0.05434302 
S       1.77186080       1.44178118      -0.07733469 
S      -0.04022716      -0.27054091      -2.34594937 
S       0.40443206       0.12503317       2.28877407 
O      -1.55932868       1.30277185       0.00030538 
C      -2.11057905      -2.35070218       1.59118243 
H      -3.05680938      -2.37920347       1.38046044 
H      -1.85139191      -3.24054077       1.88077229 
C      -1.91251706      -1.39144122       2.76340175 
H      -2.27858906      -0.52469004       2.52734535 
H      -2.40547993      -1.72322187       3.53013055 
C      -0.44944252      -1.22469857       3.15056721 
H       0.01640787      -2.05410440       2.96573097 
H      -0.39741161      -1.06458953       4.10614150 
C       1.58333535       2.36159385      -1.64261632 
C       1.66391214       0.11707462      -2.87668185 
C       2.02405774       1.59543844      -2.88088723 
H       0.65214308       2.60914330      -1.74644173 
H       2.09982344       3.18118870      -1.58493741 
H       2.28207427      -0.34863576      -2.28963682 
H       1.79466212      -0.23294411      -3.77154772 
H       1.62178971       2.00850751      -3.65990235 
H       2.98514894       1.67886121      -2.97011953 
