24
Properties=species:S:1:pos:R:3 2c24 h20 p=T pbc="F F F" h12=T v,=T c6=T o=T s4=T
V       0.06223706      -0.30405908       0.27330983 
S      -0.42254745      -1.31841156      -1.83003326 
S       0.30945786       1.86293474       1.28760021 
S      -2.34801520       0.07022363       0.24532090 
S       2.27466396       0.28638584      -0.40196064 
O       0.22447162      -1.46954592       1.38519594 
C       0.95430942      -2.34166463      -2.47348064 
H       0.70562411      -3.27487114      -2.38488520 
H       1.05201982      -2.15670424      -3.42168701 
C       2.31489149      -2.14615711      -1.80707124 
H       2.26014178      -2.44202847      -0.88487194 
H       2.97053283      -2.70057091      -2.25842877 
C       2.78607128      -0.69863170      -1.83784643 
H       2.44253948      -0.27799676      -2.64043424 
H       3.75480496      -0.68849184      -1.89185189 
C      -1.02268830       1.81981424       2.53468923 
C      -2.71398686       1.82223178       0.60938919 
C      -2.38042431       2.27688593       2.02265058 
H      -1.10614355       0.91361402       2.86787969 
H      -0.76686670       2.38429402       3.28150942 
H      -2.21939828       2.37609596      -0.01690870 
H      -3.65795151       1.97863473       0.45171083 
H      -3.06525775       1.94519763       2.62289737 
H      -2.41158286       3.24479055       2.05107328 
