24
Properties=species:S:1:pos:R:3 2c24 h20 p=T pbc="F F F" h12=T v,=T c6=T o=T s4=T
V      -0.02955980       0.17098170       0.37538663 
S      -0.98033120      -2.01242120       0.50486513 
S       1.02813794       1.65608309      -1.19353488 
S      -2.15275944       0.64178938      -0.72939857 
S       2.19824682      -0.68630649       0.33820060 
O      -0.20981199       0.90020098       1.80951310 
C      -0.09534142      -3.11840649       1.66693047 
H      -0.64797585      -3.23441436       2.45541337 
H      -0.00389110      -3.98896610       1.24667366 
C       1.28970227      -2.65979613       2.11952166 
H       1.19784585      -1.84983893       2.64537399 
H       1.67777932      -3.34176501       2.68985356 
C       2.23399994      -2.39257529       0.95539870 
H       2.00546044      -2.99023316       0.22761452 
H       3.13906354      -2.60231655       1.23527872 
C      -0.14684883       3.05288835      -1.20023865 
C      -1.85737565       1.50265528      -2.31296160 
C      -1.29055905       2.90965791      -2.19319242 
H      -0.51900469       3.14914667      -0.31062423 
H       0.34037737       3.86713104      -1.40381173 
H      -1.24418980       0.96795697      -2.84374712 
H      -2.69546845       1.54998673      -2.79850643 
H      -2.00560172       3.50871013      -1.93020840 
H      -0.97931861       3.19249569      -3.06597546 
