24
Properties=species:S:1:pos:R:3 2c24 h20 p=T pbc="F F F" h12=T v,=T c6=T o=T s4=T
V      -0.34171663      -0.23191059      -0.02169951 
S      -0.31523301       1.18738436      -1.93817535 
S       0.95200182      -0.74235985       1.94082423 
S      -1.02457994       1.84328733       1.06339872 
S       1.34639162      -1.65867966      -0.92395709 
O      -1.71369174      -1.09129134      -0.03262442 
C      -0.23568153       0.26533751      -3.51941137 
H      -1.10367381       0.32322222      -3.94813821 
H       0.40369112       0.71116669      -4.09845536 
C       0.15235680      -1.20924897      -3.42705760 
H      -0.54292512      -1.68939525      -2.95057931 
H       0.20787237      -1.57818341      -4.32247328 
C       1.48241266      -1.42765254      -2.71886370 
H       2.05389765      -0.66410669      -2.89061257 
H       1.91275594      -2.20908427      -3.10048323 
C      -0.22637819      -0.29841820       3.26220235 
C       0.00904802       2.14849712       2.53800843 
C      -0.18147918       1.16324708       3.68180205 
H      -1.12341780      -0.50680303       2.96041571 
H      -0.04309727      -0.84990415       4.03943711 
H       0.94211584       2.13040690       2.26839830 
H      -0.18022919       3.04081087       2.86716480 
H      -1.00761550       1.37915719       4.14026883 
H       0.54260481       1.28099886       4.31461715 
