24
Properties=species:S:1:pos:R:3 2c24 h20 p=T pbc="F F F" h12=T v,=T c6=T o=T s4=T
V      -0.38994051      -0.11567900      -0.07475568 
S      -0.02433626      -0.30222469       2.27460879 
S       0.74756574       0.52244481      -2.09580562 
S       0.91819470      -2.17454524      -0.08099725 
S      -0.53567101       2.26491477       0.03004931 
O      -1.88230924      -0.64595007      -0.41034249 
C      -1.10654739       0.79629014       3.26399772 
H      -1.77762039       0.24831568       3.69983362 
H      -0.56804198       1.20419642       3.96147702 
C      -1.82264415       1.90992597       2.50207324 
H      -2.45431427       1.51269234       1.88224484 
H      -2.32449404       2.45135037       3.13133484 
C      -0.86597801       2.80813172       1.72986625 
H      -0.02548784       2.85115436       2.21030394 
H      -1.23563562       3.70483564       1.70266918 
C       0.69659023      -1.04180674      -3.03507256 
C       2.28140353      -2.04672435      -1.28985500 
C       1.85407095      -1.98676179      -2.74898950 
H      -0.13372833      -1.49840966      -2.83193631 
H       0.69268872      -0.83439364      -3.98311639 
H       2.79795437      -1.24934046      -1.08740353 
H       2.86854587      -2.80967362      -1.17338232 
H       1.60315625      -2.87857771      -3.03362323 
H       2.61513702      -1.71363390      -3.28265387 
