24
Properties=species:S:1:pos:R:3 2c24 h20 p=T pbc="F F F" h12=T v,=T c6=T o=T s4=T
V      -0.36232580      -0.14925318       0.13216333 
S      -0.67815570       2.16094570      -0.36904697 
S       1.33953409      -1.84889982       0.10687462 
S       0.71830146       0.79350800       2.10539240 
S      -0.33042208      -0.75457777      -2.17695176 
O      -1.74268545      -0.74157148       0.73609761 
C      -1.89541221       2.45034967      -1.70745578 
H      -2.70453446       2.80736089      -1.30942047 
H      -1.53858753       3.13227378      -2.29949348 
C      -2.27631611       1.23667640      -2.55327944 
H      -2.74291210       0.59600430      -1.99397953 
H      -2.88526266       1.51820968      -3.25391269 
C      -1.07124522       0.55705907      -3.18905594 
H      -0.39600188       1.22848594      -3.36885427 
H      -1.34208941       0.17691296      -4.03970082 
C       1.41896225      -2.29116676       1.87599726 
C       2.36851246       0.04468791       2.33361527 
C       2.36825668      -1.43256716       2.69830621 
H       0.52948432      -2.21874681       2.25383828 
H       1.69502575      -3.21845236       1.95184495 
H       2.87408991       0.15880216       1.51203032 
H       2.83410164       0.53250652       3.03050359 
H       2.13175287      -1.51900687       3.63420381 
H       3.26745852      -1.77708469       2.59171450 
