24
Properties=species:S:1:pos:R:3 2c24 h20 p=T pbc="F F F" h12=T v,=T c6=T o=T s4=T
V       0.33052845       0.07256481      -0.23771608 
S      -1.49392686      -0.44375774      -1.68435113 
S       0.85031204       0.31100961       2.09867739 
S       0.28206275      -2.34282375       0.09953167 
S      -0.50966248       2.26096028       0.21444836 
O       1.66209659       0.27582444      -1.13581528 
C      -1.93661741       0.93311680      -2.80909455 
H      -1.64395395       0.69980044      -3.70378975 
H      -2.90453424       1.00732200      -2.83108533 
C      -1.36118095       2.30507565      -2.46252556 
H      -0.39593533       2.27483027      -2.55404087 
H      -1.69912980       2.95850108      -3.09481475 
C      -1.71309958       2.75472944      -1.05105396 
H      -2.57853152       2.38767434      -0.81569647 
H      -1.79176065       3.72179922      -1.04378597 
C       2.10993304      -0.99266936       2.31193746 
C       0.27094018      -2.72571250       1.88538890 
C       1.54526376      -2.36771896       2.63587019 
H       2.63158862      -1.05582565       1.49764868 
H       2.71187681      -0.72859867       3.02590727 
H      -0.47146711      -2.25296684       2.29645506 
H       0.10659385      -3.67505182       1.99556487 
H       2.21926939      -3.03439174       2.43444032 
H       1.36628541      -2.41207586       3.58698389 
