24
Properties=species:S:1:pos:R:3 2c24 h20 p=T pbc="F F F" h12=T v,=T c6=T o=T s4=T
V      -0.11438946       0.31762705       0.23885509 
S       2.21166949       0.56939717      -0.22379027 
S      -1.96357156      -1.14632488      -0.23351728 
S       0.73809063      -1.38039634       1.76862015 
S      -0.73550008       1.02982835      -1.95350417 
O      -0.57311447       1.49969703       1.24545941 
C       2.60291444       2.10166505      -1.14893282 
H       3.03552389       2.72094908      -0.54073525 
H       3.24513532       1.88107961      -1.84301307 
C       1.42381920       2.82078250      -1.80170597 
H       0.83255748       3.15194098      -1.10763639 
H       1.75550851       3.58487433      -2.29880729 
C       0.63195303       1.92398989      -2.74351183 
H       1.23717342       1.27840598      -3.13851149 
H       0.27266852       2.46841325      -3.46183084 
C      -2.39943795      -1.71292966       1.44597172 
C      -0.15787369      -2.95268492       1.52129426 
C      -1.62636608      -2.93471903       1.91940157 
H      -2.24294579      -0.98681343       2.06842245 
H      -3.34766621      -1.91838831       1.46770700 
H      -0.09626382      -3.19725783       0.58320004 
H       0.28967462      -3.64544575       2.03136930 
H      -1.68441752      -2.98242636       2.88566459 
H      -2.05287711      -3.72784363       1.56210649 
