24
Properties=species:S:1:pos:R:3 2c24 h20 p=T pbc="F F F" h12=T v,=T c6=T o=T s4=T
V      -0.31969114       0.09106164      -0.24602642 
S      -0.84906614      -1.93344629       0.89813657 
S       1.42632867       1.73665439      -0.41692011 
S       1.09012488      -1.42521053      -1.53580330 
S      -0.72745176       1.41902577       1.69554272 
O      -1.51596580       0.42752022      -1.28366455 
C      -2.32648540      -1.79152856       1.97233296 
H      -3.05488152      -2.27403776       1.55139129 
H      -2.13311707      -2.23549422       2.81397193 
C      -2.80878262      -0.37519621       2.28039195 
H      -3.11825725       0.03847296       1.45936076 
H      -3.56122306      -0.42323671       2.89071099 
C      -1.72509583       0.49722111       2.89909890 
H      -1.13595380      -0.06580171       3.42351477 
H      -2.14354420       1.12966598       3.50439123 
C       1.88678853       1.57716917      -2.17596672 
C       2.78845162      -0.76184147      -1.64369816 
C       2.93824801       0.51452517      -2.45839526 
H       1.09032205       1.36865598      -2.68718378 
H       2.21972871       2.43355176      -2.48834823 
H       3.10967451      -0.59149349      -0.74290415 
H       3.36048289      -1.44210230      -2.03153710 
H       2.90195146       0.28561457      -3.39945460 
H       3.81339864       0.89154740      -2.28351336 
