24
Properties=species:S:1:pos:R:3 2c24 h20 p=T pbc="F F F" h12=T v,=T c6=T o=T s4=T
V      -0.12013991      -0.27654561       0.28304164 
S       1.68833629      -1.23923159      -0.93787140 
S      -1.42939557       1.73780974       0.40131024 
S      -1.33291237      -0.85248705      -1.75353915 
S       1.33578589       1.16446270       1.50910171 
O      -0.67071744      -1.37058358       1.34177468 
C       3.14974304      -1.60637109       0.10438822 
H       3.20454597      -2.56748542       0.22196298 
H       3.94449705      -1.32791219      -0.37901605 
C       3.17959709      -0.95521696       1.48591465 
H       2.45630738      -1.31741759       2.02131324 
H       4.01517327      -1.18106555       1.92382867 
C       3.04520586       0.56034665       1.42852784 
H       3.44696576       0.87604032       0.60510721 
H       3.54508783       0.94455508       2.16606852 
C      -3.09555299       1.09510381       0.02374921 
C      -2.27493520       0.59351843      -2.35159823 
C      -3.42640050       1.03442320      -1.45996336 
H      -3.17564640       0.20386108       0.39583914 
H      -3.75219065       1.65709681       0.46512589 
H      -1.66116608       1.33958085      -2.45314024 
H      -2.62910381       0.38793870      -3.23062905 
H      -4.16676066       0.42205796      -1.58718687 
H      -3.72085525       1.91163024      -1.74705617 
