24
Properties=species:S:1:pos:R:3 2c24 h20 p=T pbc="F F F" h12=T v,=T c6=T o=T s4=T
V       0.10793429       0.24046475      -0.31866995 
S       1.27264302       1.03393399       1.60534650 
S      -1.44461329      -1.47104723      -0.98656819 
S      -1.74751032       1.38902454       0.77143216 
S       1.55125924      -1.64775966      -0.54421337 
O       0.44237147       1.21706224      -1.56581848 
C       3.09431597       0.92218356       1.44464265 
H       3.44337606       1.81859300       1.32145548 
H       3.45231757       0.58442997       2.28166735 
C       3.62369719       0.04518870       0.31144196 
H       3.37212438       0.44079672      -0.53778967 
H       4.59257342       0.02443200       0.35400770 
C       3.09537355      -1.38154280       0.37143097 
H       2.95022640      -1.61939494       1.29957628 
H       3.77304721      -1.97876404       0.01710125 
C      -2.85584154      -0.46170853      -1.55346678 
C      -3.19562735       0.28082100       0.87562203 
C      -3.83762513      -0.07840388      -0.45632334 
H      -2.51375505       0.34866921      -1.96021514 
H      -3.33407753      -0.95453195      -2.23920575 
H      -2.92310419      -0.54030718       1.31733696 
H      -3.86601693       0.70226721       1.43540280 
H      -4.36132091       0.67838376      -0.76017423 
H      -4.44782909      -0.81763361      -0.31558028 
