24
Properties=species:S:1:pos:R:3 2c24 h20 p=T pbc="F F F" h12=T v,=T c6=T o=T s4=T
V       0.39654520      -0.03902746       0.11069056 
S       0.33529128       1.24972636      -1.89513612 
S      -1.06942618      -1.14738191       1.66254224 
S      -0.02687253      -1.85287276      -1.46438707 
S      -0.36417833       1.79437937       1.43710199 
O       1.94312906      -0.28389824       0.52189250 
C       1.00097218       2.94386391      -1.68639443 
H       1.86507299       2.98622823      -2.12468997 
H       0.41086021       3.56060284      -2.14927014 
C       1.17120052       3.43454532      -0.24981435 
H       1.84982459       2.89780152       0.18877931 
H       1.48258215       4.35312813      -0.26433815 
C      -0.11822545       3.36215596       0.55667667 
H      -0.86679063       3.50171728      -0.04271290 
H      -0.12068549       4.08507555       1.20385947 
C      -0.51023576      -2.87710849       1.49805570 
C      -1.43617838      -2.86362038      -0.89144744 
C      -1.19246910      -3.65681809       0.38398398 
H       0.44555975      -2.87997922       1.33797393 
H      -0.66797933      -3.33540289       2.33883257 
H      -2.19709438      -2.27695582      -0.74839504 
H      -1.67703613      -3.48380718      -1.59696106 
H      -0.64749274      -4.42852363       0.16769363 
H      -2.04359441      -3.98350727       0.71182227 
