24
Properties=species:S:1:pos:R:3 2c24 h20 p=T pbc="F F F" h12=T v,=T c6=T o=T s4=T
V       0.34289373       0.02985582      -0.22925131 
S      -0.32268622      -2.26033685      -0.22919002 
S      -0.32753883       2.16837678       0.64425519 
S       1.10149988      -0.56068153       2.01261604 
S      -1.38955608       0.64296342      -1.75311644 
O       1.73351840       0.16499305      -1.04709683 
C      -0.73890291      -2.89212989      -1.89784440 
H      -0.02602921      -3.48391614      -2.18449413 
H      -1.54725118      -3.42544531      -1.82712864 
C      -0.95382585      -1.84306012      -2.98723368 
H      -0.11618006      -1.38217681      -3.15132222 
H      -1.21334327      -2.28896442      -3.80868600 
C      -2.02081729      -0.82035953      -2.62131009 
H      -2.68370139      -1.25121744      -2.06091632 
H      -2.46542981      -0.53121537      -3.43382453 
C       1.11638529       2.59302631       1.67695056 
C       0.47673940       0.65380114       3.22534838 
C       1.05402564       2.05596317       3.09899825 
H       1.91502543       2.24788704       1.25006381 
H       1.19800562       3.55936261       1.71375815 
H      -0.48889098       0.70923828       3.13525331 
H       0.66607526       0.32344164       4.11720494 
H       1.94977581       2.05505005       3.46905363 
H       0.51798947       2.65996549       3.63422202 
