24
Properties=species:S:1:pos:R:3 2c24 h20 p=T pbc="F F F" h12=T v,=T c6=T o=T s4=T
V      -0.28472151      -0.28177608      -0.10275965 
S       1.83661185      -1.11746940      -0.80243143 
S      -1.27388290       1.61930283       0.98958830 
S       0.00853787       1.10839871      -2.08558588 
S       0.16249905      -0.76693814       2.19159423 
O      -1.43181068      -1.32414726      -0.57032685 
C       2.30759938      -2.68073760       0.02893460 
H       2.22650622      -3.40237680      -0.61389406 
H       3.24360822      -2.62041802       0.28013568 
C       1.50385967      -3.05787012       1.27202825 
H       0.58678258      -3.23815732       1.01230711 
H       1.87082130      -3.87204977       1.65072932 
C       1.51450194      -1.96891834       2.33615140 
H       2.35786258      -1.49430868       2.28532272 
H       1.46487380      -2.38803839       3.20984458 
C      -2.37209729       2.24698154      -0.32633281 
C      -0.27745573       2.86332906      -1.66792492 
C      -1.70840756       3.21802045      -1.29129114 
H      -2.71342083       1.49328119      -0.83092522 
H      -3.12995758       2.69016696       0.08725755 
H       0.30389485       3.10162123      -0.92706004 
H      -0.01655193       3.40689156      -2.42743965 
H      -2.23886464       3.26055326      -2.10130128 
H      -1.71300169       4.10116161      -0.89297137 
