24
Properties=species:S:1:pos:R:3 2c24 h20 p=T pbc="F F F" h12=T v,=T c6=T o=T s4=T
V      -0.38521502      -0.13833515       0.05913054 
S       0.40804966       0.69057839       2.14997072 
S       0.31306476      -0.41184812      -2.22633688 
S       1.07804872      -1.99931622       0.64717437 
S      -0.72024916       2.06139725      -0.80595771 
O      -1.86055668      -0.76803611       0.27779468 
C      -0.57362621       2.09974093       2.78823371 
H      -1.10512020       1.78502853       3.53592227 
H       0.04221041       2.76747462       3.13135169 
C      -1.50976774       2.78182196       1.79228553 
H      -2.20402235       2.15622922       1.53222169 
H      -1.93747307       3.53655275       2.22635168 
C      -0.78932356       3.27247860       0.54388512 
H       0.11612870       3.51918212       0.78552251 
H      -1.23587142       4.07127497       0.22142005 
C       0.23438427      -2.22700336      -2.40162128 
C       2.18738358      -2.38954302      -0.75036373 
C       1.50339502      -2.95594716      -1.98593167 
H      -0.50271267      -2.55839196      -1.86678562 
H       0.04333252      -2.44113653      -3.32869664 
H       2.65903420      -1.57906832      -1.00395570 
H       2.85112206      -3.02830662      -0.44733583 
H       1.28579972      -3.88551214      -1.81898433 
H       2.13000652      -2.93119647      -2.72441896 
