24
Properties=species:S:1:pos:R:3 2c24 h20 p=T pbc="F F F" h12=T v,=T c6=T o=T s4=T
V       0.06680377       0.27948727       0.29740170 
S       2.18996546      -0.57375015      -0.37501893 
S      -2.27695497       0.05059297      -0.19266737 
S      -0.04011638      -1.87601697       1.43430823 
S      -0.13885430       1.61378130      -1.67156057 
O       0.28879472       1.31330677       1.52333301 
C       3.29227820       0.70694577      -1.08320732 
H       3.98902708       0.89865440      -0.43640231 
H       3.72222928       0.33520457      -1.87048334 
C       2.63334853       2.02716200      -1.47861732 
H       2.30352254       2.46714979      -0.67948372 
H       3.30005598       2.60484975      -1.88203012 
C       1.48108250       1.84350044      -2.45679866 
H       1.66749504       1.07281126      -3.01391947 
H       1.43789905       2.62127860      -3.03529730 
C      -2.91480782      -0.53643185       1.41364810 
C      -1.61510413      -2.71355896       1.04194289 
C      -2.86386617      -2.04566003       1.59852757 
H      -2.40114440      -0.11990709       2.12205229 
H      -3.83518923      -0.24340533       1.50775463 
H      -1.70083019      -2.77006333       0.07597667 
H      -1.57460464      -3.62051028       1.38281337 
H      -2.92336928      -2.24367026       2.54539689 
H      -3.63999462      -2.43591451       1.16964049 
