24
Properties=species:S:1:pos:R:3 2c24 h20 p=T pbc="F F F" h12=T v,=T c6=T o=T s4=T
V       0.24265942       0.31640786       0.10966365 
S       1.47584344      -1.69249290       0.47236751 
S      -1.89964726       1.07485962      -0.67839618 
S      -0.85678964      -0.40982701       2.16246212 
S       0.53719117       0.19504669      -2.25633946 
O       1.13507440       1.56991243       0.61294502 
C       2.99293364      -1.80369686      -0.54884610 
H       3.75887832      -1.66741835       0.03022631 
H       3.05446642      -2.70569086      -0.90306854 
C       3.09884103      -0.82475578      -1.71673575 
H       3.15895982       0.07818015      -1.36733428 
H       3.91422561      -1.00747311      -2.20940826 
C       1.91497279      -0.91126730      -2.67028651 
H       1.58854050      -1.82367783      -2.67692221 
H       2.22223927      -0.70212106      -3.56656186 
C      -2.54483331       1.91015196       0.81080678 
C      -2.67002352      -0.38476882       1.94436003 
C      -3.28628334       0.99608390       1.77479673 
H      -1.80388232       2.32107721       1.28124439 
H      -3.14530806       2.62002040       0.53270718 
H      -2.89319839      -0.91928770       1.16454276 
H      -3.07846875      -0.81045285       2.71400878 
H      -3.32298443       1.42596716       2.64264672 
H      -4.19737879       0.89136880       1.46245415 
