24
Properties=species:S:1:pos:R:3 2c24 h20 p=T pbc="F F F" h12=T v,=T c6=T o=T s4=T
V      -0.32980057      -0.24263552      -0.05816552 
S      -1.11570418       1.84689015       0.78101095 
S       1.71073111      -1.36012178      -0.66908303 
S       0.29924775      -0.53934919       2.27987770 
S       0.07449851       0.66160479      -2.23033952 
O      -1.59098791      -1.24578838      -0.21328228 
C      -2.22464733       2.72304706      -0.38492231 
H      -3.13026137       2.66646177      -0.04253474 
H      -1.97596264       3.66163734      -0.39248508 
C      -2.22852554       2.21938562      -1.82707986 
H      -2.58962122       1.31925441      -1.84612352 
H      -2.81157066       2.78457335      -2.35772574 
C      -0.84138693       2.21219135      -2.45483938 
H      -0.32390968       2.93611366      -2.07110922 
H      -0.92985408       2.38537703      -3.40544163 
C       1.70979158      -2.75745425       0.50529548 
C       2.04549669      -1.06172571       2.39714212 
C       2.34783316      -2.44964728       1.85166207 
H       0.79386900      -3.03745360       0.65316590 
H       2.18246274      -3.50254877       0.10126745 
H       2.59197553      -0.41702887       1.91822742 
H       2.31330906      -1.03333271       3.32873429 
H       2.04383624      -3.10696501       2.49573463 
H       3.30819657      -2.54599728       1.76777614 
