24
Properties=species:S:1:pos:R:3 2c24 h20 p=T pbc="F F F" h12=T v,=T c6=T o=T s4=T
V       0.11380784       0.35359221      -0.18177999 
S       0.11180347      -1.34518903      -1.85573263 
S      -0.33186597       0.66565657       2.16124284 
S       2.19136917      -0.76226365       0.44175146 
S      -2.26966931       0.48862424      -0.16593035 
O       0.64070672       1.73335771      -0.84479967 
C      -1.08609441      -1.02858859      -3.20540335 
H      -0.58947676      -0.76801004      -3.99662877 
H      -1.53984685      -1.86237401      -3.40976475 
C      -2.14647338       0.03755012      -2.93623253 
H      -1.71163048       0.90023477      -2.84862085 
H      -2.74801912       0.08394359      -3.69580755 
C      -2.95851233      -0.24011566      -1.67854347 
H      -3.02476332      -1.19937770      -1.55803539 
H      -3.85694678       0.10309751      -1.80693590 
C       1.30366144       1.21301942       2.75886126 
C       2.19113966      -1.13226182       2.23035842 
C       2.24414547       0.08166394       3.14624966 
H       1.72543326       1.74307555       2.06580389 
H       1.17563600       1.78771266       3.53032719 
H       1.38999646      -1.64047576       2.43897432 
H       2.95316520      -1.69868080       2.42753911 
H       3.15141460       0.42241128       3.15425811 
H       2.03126111      -0.20218248       4.04776479 
