24
Properties=species:S:1:pos:R:3 2c24 h20 p=T pbc="F F F" h12=T v,=T c6=T o=T s4=T
V       0.06191535       0.37461504       0.16387100 
S      -2.25116618      -0.14692719       0.42004805 
S       2.09992393      -0.55804541      -0.70930186 
S      -0.64905022       0.77319576      -2.13522627 
S       0.69930068      -1.10554371       1.92521089 
O       0.31913698       1.87400509       0.71761901 
C      -2.78255686      -0.23529913       2.17122496 
H      -3.31873647       0.54917849       2.36532345 
H      -3.35669513      -1.01147650       2.27498879 
C      -1.67051740      -0.32210277       3.21494026 
H      -1.16060454       0.50301419       3.20229857 
H      -2.06906312      -0.41149160       4.09478955 
C      -0.72708854      -1.49347637       2.97805801 
H      -1.22684702      -2.21595562       2.56896115 
H      -0.40249027      -1.80920152       3.83620598 
C       2.51771660       0.66164253      -2.00139875 
C       0.44645755      -0.11860398      -3.29305592 
C       1.87946239       0.38924275      -3.35527287 
H       2.24118781       1.54003652      -1.69951250 
H       3.48181212       0.67946612      -2.11105584 
H       0.46295080      -1.05633025      -3.04001474 
H       0.06327968      -0.06510625      -4.18227261 
H       1.89430793       1.20736031      -3.87467006 
H       2.41855726      -0.26434916      -3.82517967 
