24
Properties=species:S:1:pos:R:3 2c24 h20 p=T pbc="F F F" h12=T v,=T c6=T o=T s4=T
V       0.31712618      -0.01772976      -0.26484012 
S       0.50501850      -1.88632021       1.20520933 
S      -1.09326621       1.88203687      -0.69778974 
S       1.16536666       1.15748101       1.69718807 
S      -1.47183695      -1.02302113      -1.48485995 
O       1.59479275      -0.01044371      -1.25906613 
C       0.39137240      -3.49879280       0.34275763 
H       1.27604521      -3.89575660       0.32427290 
H      -0.17785159      -4.08418287       0.86826262 
C      -0.14670102      -3.46814243      -1.08659390 
H       0.47844005      -2.98443910      -1.64892713 
H      -0.20599678      -4.37656584      -1.42157862 
C      -1.51730802      -2.81294021      -1.18873994 
H      -2.00203890      -2.97874836      -0.36615944 
H      -2.00991989      -3.23438568      -1.91066903 
C       0.07418928       3.25642452      -0.41528302 
C       0.11396146       2.60548954       2.06301856 
C       0.16158115       3.72207709       1.03042633 
H       0.95616120       2.97849144      -0.70521098 
H      -0.19247328       4.00846377      -0.96768737 
H      -0.80554338       2.30399910       2.14814679 
H       0.38004088       2.97001409       2.92134088 
H       0.98775480       4.21509571       1.14738753 
H      -0.56984068       4.33354601       1.20289642 
