24
Properties=species:S:1:pos:R:3 2c24 h20 p=T pbc="F F F" h12=T v,=T c6=T o=T s4=T
V      -0.21430124       0.15934957      -0.31576310 
S       1.85806933       1.33305587      -0.19057165 
S      -1.42317838      -1.61449519       0.76952771 
S      -0.72329337       1.57550165       1.60403564 
S       0.81540472      -1.77078009      -1.27166754 
O      -1.11361870       0.82002944      -1.48866572 
C       2.89154749       1.13701091      -1.69067014 
H       2.87313602       1.97247037      -2.18284535 
H       3.80868686       0.98667980      -1.40940707 
C       2.49566282       0.01274178      -2.64607713 
H       1.62651985       0.21368555      -3.02712966 
H       3.13704110      -0.02500528      -3.37283218 
C       2.43799223      -1.34840853      -1.96620121 
H       3.09443285      -1.36682801      -1.25357123 
H       2.68561812      -2.02884760      -2.61207152 
C      -2.89883506      -0.71976492       1.36416951 
C      -1.37266184       0.56026923       2.97649230 
C      -2.73482113      -0.07174881       2.73081495 
H      -3.12465746      -0.03179433       0.72005756 
H      -3.64353116      -1.34085489       1.40286686 
H      -0.73427567      -0.14749794       3.16400541 
H      -1.43078448       1.11561922       3.76933639 
H      -3.41460035       0.61145785       2.83298663 
H      -2.89118017      -0.74286752       3.41182125 
