24
Properties=species:S:1:pos:R:3 2c24 h20 p=T pbc="F F F" h12=T v,=T c6=T o=T s4=T
V       0.01542098       0.20046345      -0.36138655 
S      -2.14156398       0.58506268       0.58067419 
S       2.08041575      -0.94049912       0.10740589 
S      -0.98099491      -1.97022172      -0.85683396 
S       1.06394550       1.71969594       1.15254117 
O       0.07601720       0.90093370      -1.81968689 
C      -2.47074524       2.35215128       0.93541888 
H      -3.10675893       2.67950054       0.28051662 
H      -2.89515110       2.41248317       1.80667815 
C      -1.25966621       3.28315251       0.92971506 
H      -0.89712029       3.32399806       0.03089302 
H      -1.54668063       4.17667397       1.17508407 
C      -0.16451035       2.83494337       1.88785363 
H      -0.57681308       2.38770016       2.64222424 
H       0.29310941       3.62092395       2.22591139 
C       2.15766542      -2.11275995      -1.28956971 
C       0.12378033      -3.31020829      -0.29121817 
C       1.43932026      -3.43157288      -1.04614030 
H       1.77177388      -1.68933265      -2.07121958 
H       3.08939752      -2.29902539      -1.48706147 
H       0.32063288      -3.16970962       0.64960149 
H      -0.35110571      -4.15246246      -0.36527742 
H       1.26598508      -3.85216116      -1.90192684 
H       2.02859818      -4.01700495      -0.54750327 
