24
Properties=species:S:1:pos:R:3 2c24 h20 p=T pbc="F F F" h12=T v,=T c6=T o=T s4=T
V       0.09110019      -0.40240422       0.02820001 
S      -1.27252317       0.15737615       1.90307506 
S       1.07294502       0.59297061      -1.92908765 
S       1.77763242       0.74759012       1.36360590 
S      -1.76809881      -0.36562507      -1.46895549 
O       0.53751099      -1.95323054       0.15713982 
C      -2.86402949      -0.74972959       1.93583233 
H      -2.81828718      -1.41700542       2.63812752 
H      -3.56529560      -0.12292421       2.17706633 
C      -3.27425604      -1.44866929       0.64095561 
H      -2.64254321      -2.16030530       0.45253578 
H      -4.14816283      -1.85175972       0.76248285 
C      -3.32749202      -0.50244610      -0.55073014 
H      -3.57998533       0.37854177      -0.23576576 
H      -4.01967908      -0.80723105      -1.15855212 
C       2.85001241       0.34520825      -1.59390251 
C       2.63150286       2.00289435       0.34816013 
C       3.49735289       1.45224993      -0.77539519 
H       2.96255106      -0.49445754      -1.12329026 
H       3.31811295       0.27155374      -2.44082601 
H       1.96289500       2.59179060      -0.03887627 
H       3.19001958       2.54137786       0.92995750 
H       4.32046231       1.11304836      -0.39232425 
H       3.73090255       2.18029569      -1.37039266 
