24
Properties=species:S:1:pos:R:3 2c24 h20 p=T pbc="F F F" h12=T v,=T c6=T o=T s4=T
V      -0.24269299       0.08359735       0.32424565 
S       1.78906217       1.29774027       0.61717411 
S      -1.31070727      -1.42377374      -1.21619040 
S       1.17965963      -1.76848380       1.02915367 
S      -1.02713415       1.59346583      -1.35038787 
O      -1.17994475       0.32146345       1.62268671 
C       1.54766756       3.11363449       0.64977809 
H       1.66710066       3.41903137       1.56248637 
H       2.24683259       3.52205083       0.11385147 
C       0.20003347       3.62882323       0.14781076 
H      -0.49809420       3.32367443       0.74821971 
H       0.20532406       4.59865151       0.16701906 
C      -0.12157298       3.16394205      -1.26595800 
H       0.70828155       3.06997254      -1.75749258 
H      -0.64825575       3.84977110      -1.70608082 
C      -1.53187509      -2.89970776      -0.16528253 
C       1.01711567      -3.16285892      -0.13931158 
C      -0.34178605      -3.84735219      -0.15102380 
H      -1.70838435      -2.61017121       0.74256798 
H      -2.31228692      -3.38664015      -0.47459909 
H       1.20529975      -2.83693191      -1.03485096 
H       1.69214904      -3.82498626       0.07588818 
H      -0.40767754      -4.41520820       0.63160513 
H      -0.39274963      -4.41922460      -0.93139725 
