24
Properties=species:S:1:pos:R:3 2c24 h20 p=T pbc="F F F" h12=T v,=T c6=T o=T s4=T
V       0.19076900      -0.01857160       0.36645044 
S       1.85186610       0.43039933      -1.28496129 
S      -2.17775791      -0.37847232       0.58166443 
S       0.36655413      -2.26012587      -0.57944646 
S      -0.63785150       2.21917364       0.29342657 
O       0.91968959      -0.18444653       1.80246250 
C       2.69791455       2.03710130      -1.04100026 
H       3.59570683       1.86121095      -0.71913143 
H       2.78005884       2.47083836      -1.90585716 
C       2.03026576       3.01698097      -0.07788593 
H       2.04989667       2.64296651       0.81694185 
H       2.53789256       3.84349539      -0.06552538 
C       0.58836371       3.32780813      -0.45549986 
H       0.50300507       3.27827588      -1.41953072 
H       0.38693986       4.23867620      -0.18864384 
C      -2.21441093      -2.07486870       1.25441971 
C      -1.29457618      -2.89808564      -0.99135294 
C      -2.20077640      -3.17148637       0.20000567 
H      -1.44830659      -2.19437766       1.83578124 
H      -3.01267857      -2.17625194       1.79692569 
H      -1.73507118      -2.25602380      -1.57217406 
H      -1.19224609      -3.72103201      -1.49402722 
H      -1.91911105      -3.99928328       0.61800936 
H      -3.10494419      -3.30082989      -0.12305612 
