24
Properties=species:S:1:pos:R:3 2c24 h20 p=T pbc="F F F" h12=T v,=T c6=T o=T s4=T
V      -0.04488487      -0.39601033      -0.11038481 
S       0.16270578       0.88688320      -2.11015217 
S      -0.06612833      -0.13514096       2.28069469 
S      -2.28997723       0.55669809      -0.15614283 
S       2.28741970      -0.22224075       0.36878920 
O      -0.31030342      -1.94174175      -0.51192899 
C       1.63400354       0.43981136      -3.10625250 
H       1.33339114      -0.04630074      -3.88976710 
H       2.05068070       1.26014656      -3.41654800 
C       2.69963104      -0.40019819      -2.40459001 
H       2.32772974      -1.27137089      -2.19545727 
H       3.44611416      -0.53339116      -3.00955812 
C       3.21066028       0.24317487      -1.12271344 
H       3.17246971       1.20629534      -1.22289075 
H       4.14119068      -0.00337966      -1.00110598 
C      -1.73946078      -0.74241416       2.68428056 
C      -2.68726650       1.30173090       1.46345616 
C      -2.82833037       0.31786332       2.61557928 
H      -1.96531637      -1.45873222       2.07186146 
H      -1.72631094      -1.11578667       3.57996051 
H      -1.99012589       1.94006003       1.68742783 
H      -3.51705038       1.79648438       1.37936500 
H      -3.68709816      -0.12489525       2.53946803 
H      -2.82898771       0.81451261       3.44741888 
