24
Properties=species:S:1:pos:R:3 2c24 h20 p=T pbc="F F F" h12=T v,=T c6=T o=T s4=T
V       0.31062135      -0.25342539      -0.10155584 
S      -1.44370816      -0.60099507      -1.67937156 
S       0.84450340       1.07051480       1.83439810 
S      -1.17922201      -1.57339837       1.30848847 
S       0.94460280       1.81857369      -1.10372125 
O       1.50797360      -1.29532982      -0.42054346 
C      -0.96090533      -0.19208427      -3.39881902 
H      -0.85683993      -1.02183541      -3.88999248 
H      -1.69100800       0.29840681      -3.81018454 
C       0.31815246       0.62557263      -3.56898548 
H       1.07367864       0.09569762      -3.26998447 
H       0.44598387       0.82018721      -4.51065853 
C       0.29074562       1.93508788      -2.79264405 
H      -0.62450838       2.25059883      -2.74953968 
H       0.80721857       2.59605946      -3.28032899 
C       1.06929381      -0.22912371       3.09618762 
C      -1.43674809      -0.73090945       2.90845918 
C      -0.21019669      -0.64740463       3.80505314 
H       1.45777016      -1.00908417       2.67200923 
H       1.70172145       0.08905163       3.75998145 
H      -1.75215685       0.17107245       2.73359237 
H      -2.13838176      -1.19477701       3.39108812 
H      -0.06800483      -1.51429358       4.21443707 
H      -0.39026045      -0.01491884       4.51650013 
