24
Properties=species:S:1:pos:R:3 2c24 h20 p=T pbc="F F F" h12=T v,=T c6=T o=T s4=T
V      -0.38311333       0.06035601       0.14354431 
S       0.49468578      -1.87150405       1.23228881 
S       0.23140278       1.73349501      -1.47161547 
S      -0.61405429      -1.52164312      -1.69877268 
S       0.93856714       1.53954520       1.47192990 
O      -1.91583112       0.27179346       0.62003221 
C       0.62910608      -1.67872746       3.04931236 
H      -0.06389788      -2.21622952       3.46332320 
H       1.48444120      -2.04246850       3.33028792 
C       0.51528230      -0.25518352       3.59159922 
H      -0.38007299       0.07690108       3.42116545 
H       0.64818200      -0.27134181       4.55234915 
C       1.52618310       0.69775277       2.96847859 
H       2.32764005       0.19911430       2.74911251 
H       1.76772870       1.36822487       3.62695200 
C      -1.01134378       1.43522478      -2.77481140 
C       0.11638139      -0.82252687      -3.21986233 
C      -0.61183604       0.38215680      -3.79754626 
H      -1.84071623       1.16083836      -2.35524863 
H      -1.18018925       2.27035839      -3.23942475 
H       1.03387162      -0.56578116      -3.03032140 
H       0.14365056      -1.51744574      -3.89568611 
H      -1.41056769       0.07163179      -4.25021849 
H      -0.04257965       0.79742463      -4.46246570 
