24
Properties=species:S:1:pos:R:3 2c24 h20 p=T pbc="F F F" h12=T v,=T c6=T o=T s4=T
V       0.31718603      -0.07524884       0.25446862 
S       0.45015465       2.21433244      -0.39983717 
S      -1.03957169      -2.03424412      -0.07311538 
S       1.19235439      -0.39987993      -1.99916886 
S      -1.49556069       0.34753571       1.74934344 
O       1.59706618      -0.42379602       1.18258069 
C       0.29456942       3.37819896       1.00658175 
H       1.16808567       3.76191666       1.18064502 
H      -0.29178674       4.10348920       0.73640867 
C      -0.23887147       2.79597331       2.31423705 
H       0.40068904       2.15236918       2.65734783 
H      -0.32217537       3.50876537       2.96688686 
C      -1.59076487       2.11490107       2.15049285 
H      -2.08191817       2.56621996       1.44751722 
H      -2.09291617       2.21944457       2.97413056 
C       0.16436256      -3.16900284      -0.84419823 
C       0.18007316      -1.62967736      -2.89298011 
C       0.26083957      -3.05183217      -2.35797114 
H       1.03911965      -2.99802443      -0.46374338 
H      -0.08022154      -4.08068474      -0.61872706 
H      -0.74755245      -1.34265775      -2.86535899 
H       0.45387663      -1.63599247      -3.82324103 
H       1.09990560      -3.44227877      -2.64577286 
H      -0.45399740      -3.57192256      -2.75437012 
