24
Properties=species:S:1:pos:R:3 2c24 h20 p=T pbc="F F F" h12=T v,=T c6=T o=T s4=T
V       0.13883779      -0.26520076      -0.28533536 
S      -1.56648615       1.05545017      -1.30304383 
S       1.28846176      -0.53659101       1.81001124 
S      -1.79944589      -1.34584893       0.72730614 
S       1.72305945       1.51832577      -0.37873251 
O       0.64188166      -1.37350127      -1.35284985 
C      -0.96074812       2.05639505      -2.71300731 
H      -1.29543718       1.65980412      -3.53231604 
H      -1.34687258       2.94451830      -2.64231094 
C       0.55437436       2.20412602      -2.83984454 
H       0.94137825       1.33534801      -3.03074165 
H       0.75345153       2.78878369      -3.58784689 
C       1.20064250       2.77123074      -1.58325509 
H       0.57095084       3.37000327      -1.15423888 
H       1.97540308       3.29500376      -1.84185171 
C       0.83824196      -2.25328527       2.23658683 
C      -1.57941932      -1.45833254       2.53698824 
C      -0.46986779      -2.39037601       3.00117837 
H       0.77478085      -2.76941735       1.41880944 
H       1.55147752      -2.63737592       2.77099484 
H      -1.39733616      -0.56807408       2.88038021 
H      -2.41433541      -1.75559409       2.93061789 
H      -0.78126345      -3.30460196       2.92034635 
H      -0.29822635      -2.22266734       3.93981093 
