24
Properties=species:S:1:pos:R:3 2c24 h20 p=T pbc="F F F" h12=T v,=T c6=T o=T s4=T
V       0.08083281      -0.37497003      -0.15455476 
S       2.17125431       0.68007862       0.29820284 
S      -2.28549663       0.02627864       0.00434710 
S       0.13172826       1.14578950      -2.06109271 
S      -0.32019032      -0.81090271       2.15814742 
O       0.36461788      -1.81235519      -0.84329296 
C       3.17355894      -0.20840060       1.54832137 
H       3.91214023      -0.64143049       1.09274403 
H       3.55246655       0.44799199       2.15530635 
C       2.44400656      -1.26159013       2.38021883 
H       2.16361436      -1.98508270       1.79804390 
H       3.05845397      -1.62845200       3.03507041 
C       1.22543491      -0.70429447       3.10326239 
H       1.39234689       0.22524163       3.32051361 
H       1.11247824      -1.18590227       3.93798334 
C      -2.77710994      -0.07930215      -1.75032461 
C      -1.44151957       2.06730765      -2.16930149 
C      -2.66376555       1.23014537      -2.51651352 
H      -2.22333609      -0.74337565      -2.18795505 
H      -3.69623494      -0.38728910      -1.79696995 
H      -1.60044881       2.50523349      -1.31689613 
H      -1.34564116       2.76233465      -2.83873290 
H      -2.64291479       1.03285159      -3.46517077 
H      -3.45811735       1.75785106      -2.34577988 
