24
Properties=species:S:1:pos:R:3 2c24 h20 p=T pbc="F F F" h12=T v,=T c6=T o=T s4=T
V      -0.07321280      -0.02662633      -0.40614599 
S       2.29218623      -0.03664509      -0.10157053 
S      -2.11735168       0.07541277       0.85751915 
S       0.23639398       2.34943420       0.05065471 
S      -0.28470431      -2.28533154       0.33747373 
O      -0.39103888      -0.04129586      -1.99351543 
C       3.08999404      -1.57806349      -0.68837393 
H       3.56873631      -1.37867126      -1.50789605 
H       3.74756695      -1.84960670      -0.02752968 
C       2.16394713      -2.76348565      -0.95430567 
H       1.57852720      -2.54640942      -1.69670068 
H       2.69863253      -3.53067022      -1.21218780 
C       1.31671962      -3.13515504       0.25497293 
H       1.81776700      -2.93080889       1.05889409 
H       1.15952547      -4.09253398       0.24155981 
C      -2.84613627       1.62275435       0.22009398 
C      -0.92833278       2.89479622       1.34757622 
C      -2.39744381       2.87894718       0.95166752 
H      -2.61565795       1.71087968      -0.71707897 
H      -3.81262492       1.55790702       0.27939854 
H      -0.81276188       2.32328519       2.12452599 
H      -0.69217718       3.79690184       1.61371449 
H      -2.57246497       3.64594305       0.38563297 
H      -2.93404360       2.97871821       1.75212019 
