24
Properties=species:S:1:pos:R:3 2c24 h20 p=T pbc="F F F" h12=T v,=T c6=T o=T s4=T
V      -0.00997716      -0.34422511       0.22898292 
S      -1.39064976      -0.71270530      -1.68045277 
S       1.39397183       1.33862521       1.22029890 
S      -1.94369794       0.96693088       0.93025377 
S       1.99571432      -0.59032333      -1.04227062 
O      -0.09844026      -1.64365522       1.19055767 
C      -0.79994149      -2.08079856      -2.74637527 
H      -1.39757990      -2.83566272      -2.62985762 
H      -0.87019144      -1.79591838      -3.67198923 
C       0.62903430      -2.56289118      -2.50322274 
H       0.68204624      -2.96058149      -1.62003471 
H       0.84531641      -3.25071545      -3.15213234 
C       1.65652633      -1.44409828      -2.60738558 
H       1.34201189      -0.79376116      -3.25332470 
H       2.48708480      -1.81566692      -2.94439258 
C       0.52989302       1.62830383       2.80180384 
C      -1.41202008       2.63094486       1.46353578 
C      -0.57579098       2.67110166       2.73412243 
H       0.14776900       0.79061856       3.10420113 
H       1.18112110       1.90942202       3.46414594 
H      -0.89879516       3.03477800       0.74440338 
H      -2.20146711       3.17768689       1.59859183 
H      -1.16414749       2.54815240       3.49440545 
H      -0.17665174       3.55031566       2.81342355 
