24
Properties=species:S:1:pos:R:3 2c24 h20 p=T pbc="F F F" h12=T v,=T c6=T o=T s4=T
V      -0.16277949       0.08857684      -0.36970343 
S      -1.54568485      -1.56889019       0.64437495 
S       1.81738727       1.38482307       0.05977378 
S       1.27714527      -1.84656342      -0.73307064 
S      -1.02234527       1.81682840       1.03519564 
O      -0.72512678       0.39298268      -1.85700735 
C      -3.26127081      -0.99726908       0.93902783 
H      -3.84154692      -1.43666700       0.29810894 
H      -3.53126604      -1.29211639       1.82391236 
C      -3.50122344       0.50838606       0.84451020 
H      -3.34918916       0.79551409      -0.06950950 
H      -4.42733377       0.69530300       1.06438641 
C      -2.60067282       1.31037747       1.77408305 
H      -2.41698495       0.77812080       2.56278873 
H      -3.07847581       2.10498878       2.06002276 
C       2.90740021       0.81641303      -1.28947994 
C       2.97233519      -1.48243222      -0.15882928 
C       3.71929534      -0.42783835      -0.96205056 
H       2.36417356       0.63515041      -2.07129075 
H       3.51897704       1.53457331      -1.51760731 
H       2.92722836      -1.18989015       0.76638255 
H       3.48696331      -2.30412385      -0.17817826 
H       4.02030888      -0.82819729      -1.79175758 
H       4.50661798      -0.16102622      -0.46450416 
