24
Properties=species:S:1:pos:R:3 2c24 h20 p=T pbc="F F F" h12=T v,=T c6=T o=T s4=T
V       0.37541848       0.15018187       0.08677566 
S       0.57704397      -1.19818711      -1.87006552 
S      -1.26896932       0.90635905       1.67105788 
S       0.28230775      -2.04127482       1.15403142 
S      -0.66135462       1.93097202      -1.11876827 
O       1.84673547       0.68208229       0.50304311 
C       1.12963692      -0.25769605      -3.34211301 
H       2.04947979      -0.50113841      -3.52971056 
H       0.59447826      -0.54088856      -4.10123104 
C       1.05043904       1.26471105      -3.24458059 
H       1.67338749       1.57044513      -2.56675255 
H       1.32130285       1.65029882      -4.09247133 
C      -0.34581877       1.76339201      -2.89807124 
H      -0.99571315       1.14919279      -3.27155705 
H      -0.48069257       2.62681163      -3.31971085 
C      -0.61859055       0.19082287       3.21919199 
C      -1.15593306      -2.13070429       2.27629667 
C      -1.08322882      -1.23023716       3.50069659 
H       0.34975413       0.19850959       3.18139027 
H      -0.88751088       0.75741550       3.95978444 
H      -1.95387874      -1.90092819       1.77219541 
H      -1.25623918      -3.04765354       2.57552292 
H      -0.47899824      -1.63185692       4.14328290 
H      -1.96089601      -1.19317745       3.90928556 
