24
Properties=species:S:1:pos:R:3 2c24 h20 p=T pbc="F F F" h12=T v,=T c6=T o=T s4=T
V       0.29808720       0.00013856       0.28664900 
S       0.10172826      -2.22727491      -0.54283972 
S      -0.64861561       2.19167554      -0.00777381 
S      -1.74211543      -0.63810352       1.46155629 
S       1.42887504       0.74536643      -1.67941369 
O       1.39806395       0.01535030       1.47441585 
C       1.62705562      -2.83213747      -1.35790042 
H       2.04599569      -3.48237333      -0.77287865 
H       1.37217687      -3.29650772      -2.17168791 
C       2.66923698      -1.77518388      -1.71875408 
H       3.01987896      -1.38595163      -0.90233665 
H       3.40526343      -2.20286069      -2.18385779 
C       2.10702482      -0.66583097      -2.59712811 
H       1.40759012      -1.03728707      -3.15561403 
H       2.81181982      -0.34565213      -3.18211859 
C      -1.33740481       2.50163771       1.65391108 
C      -3.03187259       0.63074181       1.21141319 
C      -2.75190221       1.97972987       1.85726914 
H      -0.75736825       2.08931980       2.31173401 
H      -1.33324176       3.45813714       1.81796605 
H      -3.14968784       0.76516245       0.25659221 
H      -3.86985107       0.29101196       1.56179768 
H      -2.92116627       1.90702143       2.80878023 
H      -3.37535369       2.62897374       1.49892754 
