24
Properties=species:S:1:pos:R:3 2c24 h20 p=T pbc="F F F" h12=T v,=T c6=T o=T s4=T
V      -0.37064998      -0.11647136       0.14169212 
S       1.10017989      -1.98073411       0.36341952 
S      -0.38828843       2.16769788      -0.61198227 
S      -0.31577101      -0.80607619      -2.19745738 
S       0.60133951       1.00734970       2.01030413 
O      -1.85380294      -0.56873633       0.60718545 
C       1.33545595      -2.51317466       2.10064675 
H       0.85768675      -3.34726607       2.22947238 
H       2.27935988      -2.69608101       2.23645403 
C       0.88006720      -1.53210475       3.17936412 
H      -0.08362590      -1.43310376       3.12953073 
H       1.09633001      -1.89819071       4.05124445 
C       1.52854195      -0.16118291       3.04393470 
H       2.41418147      -0.27327207       2.66687542 
H       1.63197802       0.22221503       3.92924332 
C      -1.60958122       2.08028867      -1.96568361 
C       0.05554326       0.62879146      -3.26483457 
C      -1.02575836       1.69803817      -3.31756401 
H      -2.29021273       1.43274664      -1.72775599 
H      -2.04334889       2.94447783      -2.04841944 
H       0.87902553       1.03893982      -2.95292479 
H       0.21456214       0.30876191      -4.16632650 
H      -1.74389069       1.38242924      -3.88676268 
H      -0.65464406       2.49242234      -3.72968782 
