24
Properties=species:S:1:pos:R:3 2c24 h20 p=T pbc="F F F" h12=T v,=T c6=T o=T s4=T
V       0.18624822       0.23434656       0.28533652 
S      -0.22723144       1.61283840      -1.61644527 
S      -0.13286635      -2.01992584       1.06134369 
S       1.97431078      -0.59611905      -1.15109865 
S      -2.10628723       0.28123226       0.94981464 
O       0.99461914       1.10168171       1.38771420 
C      -1.35038542       3.01617136      -1.26149743 
H      -0.82366418       3.83040467      -1.24897604 
H      -1.98257806       3.09140452      -1.99465868 
C      -2.14079245       2.94029509       0.04349597 
H      -1.52285717       2.98524718       0.78990353 
H      -2.73151219       3.70761667       0.10034326 
C      -2.96965260       1.66839714       0.15991665 
H      -3.24584242       1.39621690      -0.72818928 
H      -3.77122236       1.86571389       0.66983465 
C       1.59486929      -2.54955655       1.31849082 
C       1.92639514      -2.42068915      -1.21937457 
C       2.26666670      -3.13002680       0.08306064 
H       2.11066531      -1.78754292       1.62257828 
H       1.61330875      -3.21616071       2.02355919 
H       1.03629570      -2.69464084      -1.49560979 
H       2.54657193      -2.71947791      -1.90238235 
H       3.22706278      -3.09861342       0.20940443 
H       2.01343331      -4.06169657       0.00254754 
