24
Properties=species:S:1:pos:R:3 2c24 h20 p=T pbc="F F F" h12=T v,=T c6=T o=T s4=T
V       0.04283148       0.36097630       0.19719335 
S      -1.27495877      -1.06237951       1.58480505 
S       1.18223771       0.36826899      -1.92117054 
S      -2.06291345       0.52540507      -1.02304775 
S       2.05727848      -0.80055660       0.73783447 
O       0.15471048       1.81351498       0.90329874 
C      -0.48997460      -1.42570481       3.19992138 
H      -0.96691493      -0.93380983       3.88631426 
H      -0.60618373      -2.37129463       3.38756017 
C       0.99623755      -1.09459383       3.32258853 
H       1.11217176      -0.13382289       3.25574994 
H       1.31062775      -1.37153286       4.19747562 
C       1.84352454      -1.77326387       2.25497481 
H       1.43211487      -2.61995427       2.02486071 
H       2.71903206      -1.96314594       2.62766199 
C       0.29121367       1.70132395      -2.79337719 
C      -1.78499759       0.19912648      -2.79852475 
C      -0.95886960       1.24596791      -3.53127142 
H       0.04057720       2.38005633      -2.14864222 
H       0.89564003       2.11240717      -3.43173593 
H      -1.34134884      -0.66048424      -2.88728081 
H      -2.64704206       0.12693891      -3.23677342 
H      -1.51882063       2.01925768      -3.69796861 
H      -0.69601883       0.88541398      -4.39122979 
