24
Properties=species:S:1:pos:R:3 2c24 h20 p=T pbc="F F F" h12=T v,=T c6=T o=T s4=T
V      -0.16501511       0.19683762       0.32411203 
S       2.14198775       0.79282582       0.22156907 
S      -1.80077488      -1.13838642      -0.82794354 
S       0.77564845      -1.86801808       1.21949458 
S      -0.72117680       1.61155901      -1.51672901 
O      -0.81942601       0.88335228       1.63613883 
C       2.41439408       2.58471841      -0.04624049 
H       2.73348875       2.97036407       0.78443631 
H       3.12086997       2.68893332      -0.70417973 
C       1.20531941       3.39325903      -0.51304748 
H       0.53674106       3.39567807       0.18979396 
H       1.47886902       4.31128370      -0.66590414 
C       0.58318565       2.84357088      -1.78940159 
H       1.28227640       2.44107149      -2.32639453 
H       0.21101175       3.58230974      -2.29656610 
C      -2.27614004      -2.31710597       0.48215263 
C       0.08279516      -3.30744161       0.33404116 
C      -1.40067772      -3.55885414       0.56071734 
H      -2.24389495      -1.86062150       1.33641352 
H      -3.19413738      -2.59391011       0.33220978 
H       0.23208517      -3.18375212      -0.61782324 
H       0.57279011      -4.09965014       0.60367831 
H      -1.51488345      -3.96331558       1.43403181 
H      -1.71000606      -4.19730440      -0.09906695 
