24
Properties=species:S:1:pos:R:3 2c24 h20 p=T pbc="F F F" h12=T v,=T c6=T o=T s4=T
V       0.02901327      -0.20035372       0.36061095 
S       0.60008118       2.08061184       0.75943010 
S      -0.65392109      -1.67011767      -1.41679161 
S       2.27654634      -0.22572181      -0.58709072 
S      -2.29950727       0.30084106       0.19861084 
O       0.21844471      -1.03006472       1.73780583 
C      -0.53662585       2.91661670       1.92810422 
H      -0.07024129       3.03887759       2.76959436 
H      -0.73688557       3.79949324       1.57699450 
C      -1.85845078       2.20674290       2.21509953 
H      -1.67547506       1.37313659       2.67619534 
H      -2.39342633       2.76101569       2.80463041 
C      -2.65775213       1.91202506       0.95313833 
H      -2.47600286       2.60640413       0.30206232 
H      -3.60310854       1.95049105       1.16828011 
C       0.72964290      -2.86050031      -1.43785392 
C       2.24331218      -0.96228447      -2.25813366 
C       1.90536291      -2.44499971      -2.30939675 
H       1.04544071      -2.98479757      -0.53010868 
H       0.39767414      -3.71643690      -1.75248357 
H       1.59248841      -0.47956201      -2.79389470 
H       3.11164485      -0.83128239      -2.66950992 
H       2.68673471      -2.94891011      -2.03582299 
H       1.70985463      -2.68557971      -3.22728337 
