24
Properties=species:S:1:pos:R:3 2c24 h20 p=T pbc="F F F" h12=T v,=T c6=T o=T s4=T
V       0.07801149       0.01355409      -0.40589917 
S      -2.13465703      -0.83214575      -0.12864665 
S       1.94968751       0.80246746       0.88259216 
S       0.64870645      -2.25151004       0.29693693 
S      -0.59923067       2.24707325       0.09627953 
O       0.44541760      -0.00412618      -1.98250010 
C      -3.41688863       0.23672547      -0.88376430 
H      -3.74676851      -0.20354545      -1.68245618 
H      -4.15990640       0.30405510      -0.26227874 
C      -2.98407210       1.65144342      -1.26422616 
H      -2.32414868       1.59971355      -1.97331998 
H      -3.75157002       2.13525388      -1.60750188 
C      -2.39540246       2.42517258      -0.09243328 
H      -2.82395681       2.12536226       0.72337919 
H      -2.60364713       3.36607027      -0.20561473 
C       3.23028513      -0.41330838       0.42035562 
C       1.86731529      -2.19708842       1.65636488 
C       3.24355548      -1.67100180       1.27626237 
H       3.09523832      -0.66926843      -0.50453696 
H       4.09979180       0.01321505       0.48247196 
H       1.51017524      -1.63949728       2.36712189 
H       1.96941617      -3.09260723       2.01415685 
H       3.71789391      -2.36684403       0.79655744 
H       3.73887688      -1.48697437       2.08830219 
