24
Properties=species:S:1:pos:R:3 2c24 h20 p=T pbc="F F F" h12=T v,=T c6=T o=T s4=T
V       0.41106810       0.03203958       0.03193942 
S      -0.32786649       1.74083973      -1.45868357 
S      -0.44489321      -1.76487220       1.38257023 
S       0.01165641      -1.35806909      -1.93230473 
S      -0.38077868       1.21465459       1.94866804 
O       2.02756893       0.07575015       0.10930074 
C       0.03078604       3.43258939      -0.85357394 
H       0.75517735       3.79753226      -1.38521467 
H      -0.75223096       3.98409291      -1.01351523 
C       0.41075652       3.56041023       0.62046558 
H       1.25797235       3.11162565       0.76813649 
H       0.53014592       4.49864860       0.83591572 
C      -0.63545653       2.96775571       1.55453528 
H      -1.50849809       3.07001430       1.14656879 
H      -0.63599186       3.47479593       2.38180445 
C       0.38555049      -3.20114397       0.62152460 
C      -1.02048584      -2.79621157      -1.48236906 
C      -0.35960488      -3.80804628      -0.55786433 
H       1.26656745      -2.92808981       0.32415274 
H       0.50402067      -3.88584879       1.29899537 
H      -1.83020038      -2.47169785      -1.05495164 
H      -1.28516550      -3.25179261      -2.29648465 
H       0.26289172      -4.33937208      -1.07699924 
H      -1.04111894      -4.40680541      -0.21779942 
