24
Properties=species:S:1:pos:R:3 2c24 h20 p=T pbc="F F F" h12=T v,=T c6=T o=T s4=T
V      -0.01030762       0.14852450       0.38582103 
S      -1.78562118      -1.43033659       0.17740176 
S       1.78113846       1.12198875      -0.89044445 
S      -1.56508242       1.52834833      -0.89048160 
S       1.64422561      -1.56843653       0.50419670 
O      -0.07883515       0.81320154       1.86043242 
C      -1.61480520      -2.86325740       1.30628000 
H      -2.27375852      -2.77337180       2.01216174 
H      -1.83125246      -3.66856938       0.80881023 
C      -0.24553769      -3.05739038       1.95506898 
H      -0.06976718      -2.31197276       2.55042286 
H      -0.26077416      -3.86694317       2.48925619 
C       0.88240743      -3.15767200       0.93724252 
H       0.53544783      -3.56534854       0.12945918 
H       1.56908610      -3.74454400       1.29152774 
C       1.30242419       2.88335191      -0.87877058 
C      -0.71475394       2.26067486      -2.33154123 
C       0.35861496       3.28742949      -2.00148632 
H       0.87877126       3.08379754      -0.03052578 
H       2.10624360       3.42369010      -0.93985670 
H      -0.30737423       1.54373955      -2.84503707 
H      -1.37851358       2.68250022      -2.89888602 
H      -0.07501120       4.11901586      -1.75706323 
H       0.88161093       3.45485670      -2.79964758 
