24
Properties=species:S:1:pos:R:3 2c24 h20 p=T pbc="F F F" h12=T v,=T c6=T o=T s4=T
V       0.32260956      -0.17422821      -0.19128839 
S       1.17506059       1.52322246       1.25092090 
S      -1.75578216      -1.17976495      -0.86578748 
S      -0.26954371       1.76936637      -1.54109634 
S      -0.10010089      -1.65788950       1.63066475 
O       1.55571651      -0.81629752      -1.02084525 
C       2.28306178       0.87264195       2.55701606 
H       3.19328215       1.12312961       2.33492886 
H       2.05734222       1.31240797       3.39278487 
C       2.24754648      -0.63695577       2.78801751 
H       2.58606633      -1.08536536       1.99724442 
H       2.83420183      -0.85732417       3.52844786 
C       0.84911488      -1.15583022       3.09370640 
H       0.35681377      -0.46346083       3.55992448 
H       0.92394791      -1.91676083       3.69107478 
C      -1.76703558      -0.79688455      -2.65043864 
C      -2.02555585       1.67732385      -2.03502254 
C      -2.37197585       0.55419869      -3.00138954 
H      -0.85563283      -0.82308438      -2.97882571 
H      -2.26531090      -1.48931992      -3.11312373 
H      -2.56496886       1.57155381      -1.23409886 
H      -2.27506815       2.52087985      -2.44312853 
H      -2.07214000       0.80672261      -3.88775307 
H      -3.33581572       0.46193853      -3.03483863 
