24
Properties=species:S:1:pos:R:3 2c24 h20 p=T pbc="F F F" h12=T v,=T c6=T o=T s4=T
V       0.32577822      -0.05123804      -0.24953328 
S       0.45367213      -1.72065374       1.44889939 
S      -1.05871872       1.78084957      -0.96534645 
S       1.11380237       1.36002046       1.57736416 
S      -1.42651633      -1.19958413      -1.39417875 
O       1.63628093      -0.17043586      -1.19258411 
C       0.36030747      -3.42852804       0.79219959 
H       1.24290027      -3.82575714       0.85389987 
H      -0.22953758      -3.94259023       1.36724382 
C      -0.12905985      -3.57695947      -0.64724336 
H       0.51735198      -3.16847256      -1.24413458 
H      -0.18202326      -4.52018552      -0.86743266 
C      -1.49181060      -2.93808852      -0.87755108 
H      -2.00492333      -2.99868742      -0.05771076 
H      -1.96209990      -3.44625297      -1.55730192 
C       0.10609390       3.17839887      -0.81779546 
C       0.05864551       2.84379774       1.72249343 
C       0.14722499       3.82181172       0.56020067 
H       0.99580087       2.86517312      -1.04026037 
H      -0.13763358       3.85543970      -1.46897527 
H      -0.86485463       2.55651458       1.81331363 
H       0.29761966       3.31289874       2.53688230 
H       0.97168549       4.32460001       0.64253525 
H      -0.58621993       4.45099703       0.62950046 
