24
Properties=species:S:1:pos:R:3 2c24 h20 p=T pbc="F F F" h12=T v,=T c6=T o=T s4=T
V      -0.13351303       0.38102155      -0.08955722 
S      -1.86725886      -1.14480367      -0.68450423 
S       2.08075406       0.41626103       0.84934893 
S       0.84044952      -0.47570896      -2.15537344 
S      -0.60311372       0.17023208       2.24164230 
O      -0.59214484       1.87560079      -0.51010457 
C      -3.41481596      -0.88488632       0.26117869 
H      -4.06977778      -0.48635552      -0.33276251 
H      -3.75656058      -1.75371293       0.52801934 
C      -3.30943374      -0.01036755       1.50922507 
H      -3.08395042       0.89460511       1.24244670 
H      -4.17299629       0.01645382       1.95025133 
C      -2.26511253      -0.51253126       2.49690525 
H      -2.21670371      -1.47823386       2.43232885 
H      -2.55641781      -0.29193029       3.39576052 
C       3.03437400       1.13762545      -0.52976171 
C       2.56583245      -0.99943237      -1.86420152 
C       3.54165701       0.12323051      -1.54376962 
H       2.47542680       1.78227763      -0.98930613 
H       3.79466422       1.61707493      -0.16382525 
H       2.57445373      -1.63399836      -1.12875329 
H       2.88317724      -1.46574534      -2.65302222 
H       3.75684799       0.58872798      -2.36615342 
H       4.36166298      -0.26727033      -1.20654956 
