24
Properties=species:S:1:pos:R:3 2c24 h20 p=T pbc="F F F" h12=T v,=T c6=T o=T s4=T
V       0.32188045      -0.15885713      -0.20538021 
S      -1.25202445       0.61109391      -1.82339687 
S       0.63560861      -0.29554141       2.17551403 
S      -1.29734507      -1.97354262      -0.01773114 
S       1.04015991       2.05952377       0.30678089 
O       1.55552239      -0.86658963      -0.97882228 
C      -0.59320403       1.94214918      -2.89626859 
H      -0.43025690       1.56926261      -3.77659339 
H      -1.27987936       2.62194596      -2.99221809 
C       0.68937368       2.62372402      -2.42302613 
H       1.41359719       1.97852889      -2.43760306 
H       0.91463950       3.33706986      -3.04056711 
C       0.56813801       3.20372265      -1.02046033 
H      -0.34929092       3.48161755      -0.87835609 
H       1.12753687       3.99436562      -0.96197130 
C       0.73682053      -2.10260186       2.41214130 
C      -1.73061160      -2.24748687       1.73533708 
C      -0.60687862      -2.78902042       2.60668530 
H       1.17501372      -2.49218670       1.64052620 
H       1.29241540      -2.28335069       3.18703917 
H      -2.03369161      -1.40505929       2.11228632 
H      -2.47533376      -2.86733018       1.77504584 
H      -0.50121988      -3.73440009       2.42120302 
H      -0.86700580      -2.70141297       3.53581223 
