24
Properties=species:S:1:pos:R:3 2c24 h20 p=T pbc="F F F" h12=T v,=T c6=T o=T s4=T
V       0.30435525      -0.06871841      -0.27142090 
S      -1.48630283       0.97546850      -1.45091084 
S       0.89805984      -0.82178020       1.93452065 
S      -1.17874584      -1.99747866      -0.44601156 
S       0.95227392       1.97908936       0.77075612 
O       1.47792115      -0.43059728      -1.32629393 
C      -1.03096634       2.59984316      -2.16567083 
H      -0.95025412       2.49637249      -3.12658044 
H      -1.76092351       3.21870687      -2.00128343 
C       0.25770845       3.23377795      -1.64514011 
H       1.01021248       2.68141106      -1.90899129 
H       0.37006188       4.10498496      -2.05664817 
C       0.26713566       3.39696120      -0.13134697 
H      -0.64179099       3.54604405       0.16985346 
H       0.78462799       4.18658134       0.09263090 
C       1.12642746      -2.60937088       1.64456970 
C      -1.39072710      -2.77488281       1.19311024 
C      -0.14547679      -3.43518412       1.76637803 
H       1.49359820      -2.73492127       0.75653691 
H       1.77699260      -2.94624757       2.28104562 
H      -1.69470308      -2.09623211       1.81814165 
H      -2.09018761      -3.44344219       1.12848081 
H      -0.00944644      -4.28157410       1.31423875 
H      -0.30103931      -3.62672107       2.70325153 
