24
Properties=species:S:1:pos:R:3 2c24 h20 p=T pbc="F F F" h12=T v,=T c6=T o=T s4=T
V      -0.03558192      -0.19463627      -0.36314500 
S       2.28755115       0.17955092       0.02546257 
S      -2.18213908       0.17716546       0.65657121 
S       0.03553067       2.18432139      -0.89764509 
S      -0.12216174      -1.97622191       1.22364569 
O      -0.21351870      -0.87750238      -1.82019775 
C       3.25789001      -1.36938689       0.15211319 
H       3.78709225      -1.46251123      -0.65525338 
H       3.87648988      -1.27966888       0.89517299 
C       2.45961745      -2.65678158       0.34930364 
H       1.92417824      -2.82067473      -0.44280293 
H       3.07625243      -3.39883246       0.44973093 
C       1.54536135      -2.60541532       1.56576762 
H       1.95679985      -2.04277924       2.23900907 
H       1.46983207      -3.49935413       1.93540672 
C      -2.97924485       1.24988103      -0.58665342 
C      -1.27752565       3.07008052       0.01193031 
C      -2.70079096       2.73497291      -0.40914077 
H      -2.67719425       0.98103367      -1.46737245 
H      -3.93853655       1.10768946      -0.54972768 
H      -1.18215237       2.87329511       0.95840370 
H      -1.14073261       4.02345195      -0.10104838 
H      -2.88952247       3.18736016      -1.24522471 
H      -3.31060527       3.08631033       0.25667196 
