24
Properties=species:S:1:pos:R:3 2c24 h20 p=T pbc="F F F" h12=T v,=T c6=T o=T s4=T
V       0.24857749       0.25457844      -0.21076691 
S       1.44935832      -1.77135238       0.16567552 
S      -1.89190833       1.26333054       0.22109529 
S       0.79794466       0.59873442       2.14081538 
S      -1.09556201      -0.73526781      -1.91750110 
O       1.22732111       1.30544946      -0.95823020 
C       1.91139674      -2.63599492      -1.38213583 
H       2.86611854      -2.52966310      -1.51543159 
H       1.73944866      -3.58415327      -1.26262607 
C       1.19927000      -2.17906714      -2.65398518 
H       1.45912775      -1.26534049      -2.85036874 
H       1.48707477      -2.73541381      -3.39466772 
C      -0.31741297      -2.25151313      -2.54123918 
H      -0.54956163      -2.98431760      -1.95115473 
H      -0.68469674      -2.45109187      -3.41687341 
C      -1.40421990       2.69630217       1.24112278 
C      -0.70511628       1.04917588       3.07565433 
C      -1.30436097       2.40466550       2.73092862 
H      -0.54520901       3.01994157       0.93041823 
H      -2.05120468       3.40710622       1.10699286 
H      -1.37893061       0.36661691       2.92164150 
H      -0.49350566       1.03915979       4.02197046 
H      -0.76497556       3.09470942       3.14591410 
H      -2.19173122       2.45697716       3.11622796 
