24
Properties=species:S:1:pos:R:3 2c24 h20 p=T pbc="F F F" h12=T v,=T c6=T o=T s4=T
V       0.24943108       0.32080079      -0.07677650 
S      -0.74376925       0.68019555       2.06153303 
S       0.27417894      -1.27165164      -1.87934359 
S      -1.96506801       1.01712996      -0.82598029 
S       1.73865981      -1.33863842       0.77639847 
O       1.16509837       1.60419229      -0.44478470 
C       0.47871371       0.74470015       3.42468408 
H       0.55717074       1.66569489       3.71825027 
H       0.12807478       0.23172200       4.17084675 
C       1.87957614       0.22560556       3.10588395 
H       2.28788743       0.80515858       2.44377434 
H       2.42159246       0.26461970       3.90941369 
C       1.87552268      -1.20365127       2.58100701 
H       1.13416895      -1.67976689       2.98449632 
H       2.69453778      -1.64052188       2.86353610 
C      -0.36854679      -0.25573541      -3.25285065 
C      -2.62273254      -0.18252959      -2.03606619 
C      -1.88556291      -0.23618200      -3.36609794 
H      -0.05452819       0.65397527      -3.13884072 
H       0.00025815      -0.59091759      -4.08559212 
H      -2.59965322      -1.06718859      -1.63546883 
H      -3.55223263       0.03305470      -2.20911702 
H      -2.14659201       0.53322166      -3.89448416 
H      -2.16995010      -1.02889888      -3.84499452 
