24
Properties=species:S:1:pos:R:3 2c24 h20 p=T pbc="F F F" h12=T v,=T c6=T o=T s4=T
V       0.36274565      -0.07743139       0.18287596 
S       0.75100397       1.54362761      -1.52282106 
S      -1.41625067      -1.36584806       1.16314118 
S       0.27060663      -1.56461004      -1.74844404 
S      -0.64709540       1.53128831       1.62914363 
O       1.78094046      -0.46695352       0.85960805 
C       1.37405022       3.13997164      -0.87451146 
H       2.31293416       3.21534351      -1.10556114 
H       0.90481485       3.85668760      -1.33166503 
C       1.23465175       3.36282549       0.63028503 
H       1.79641806       2.72462082       1.09729933 
H       1.55173147       4.25317569       0.84869020 
C      -0.19946084       3.21467597       1.11983599 
H      -0.79901124       3.49390606       0.41155292 
H      -0.33409022       3.81250925       1.87212228 
C      -0.85349033      -3.06577422       0.80922642 
C      -1.24016061      -2.58869121      -1.67877575 
C      -1.28685983      -3.60379912      -0.54623117 
H       0.11420970      -3.08808654       0.85653706 
H      -1.19440937      -3.65561301       1.50037541 
H      -2.00760031      -1.99901446      -1.59540867 
H      -1.32933119      -3.06321644      -2.51976803 
H      -0.71638435      -4.35190066      -0.77906586 
H      -2.19225254      -3.94008928      -0.47013237 
