24
Properties=species:S:1:pos:R:3 2c24 h20 p=T pbc="F F F" h12=T v,=T c6=T o=T s4=T
V       0.05407292      -0.19815790       0.35893343 
S      -2.27977568      -0.22617700      -0.13131632 
S       2.14185898       0.58284255      -0.54492108 
S      -0.46201536       2.11025771       0.95480013 
S       0.52410617      -1.87861660      -1.27035338 
O       0.28815615      -0.89055010       1.80349857 
C      -2.95269438      -1.91651367      -0.34753045 
H      -3.49094022      -2.13037195       0.43036671 
H      -3.54501136      -1.91086733      -1.11693391 
C      -1.93039092      -3.03493857      -0.54125615 
H      -1.40873063      -3.12997714       0.27104130 
H      -2.40027606      -3.87009319      -0.69188335 
C      -0.98865668      -2.77957693      -1.71010788 
H      -1.46444817      -2.27467881      -2.38671367 
H      -0.73952015      -3.63236054      -2.10017897 
C       2.68142340       1.73425150       0.76459465 
C       0.71018171       3.24578252       0.13470808 
C       2.15101745       3.15227461       0.61484429 
H       2.39462119       1.38500740       1.62188837 
H       3.65139492       1.76499843       0.77028716 
H       0.69193903       3.06921854      -0.82034417 
H       0.40122475       4.15539117       0.26718942 
H       2.22028497       3.60068476       1.47125572 
H       2.71651061       3.62929126      -0.01068800 
