24
Properties=species:S:1:pos:R:3 2c24 h20 p=T pbc="F F F" h12=T v,=T c6=T o=T s4=T
V       0.21057075      -0.35564430       0.01416818 
S      -2.09659895      -0.89824378      -0.25141225 
S       1.67003006       1.54624069       0.21057926 
S      -0.51959067       0.06651604       2.30301764 
S       0.42392752       0.31638782      -2.26668691 
O       1.05235213      -1.73068166       0.16129635 
C      -2.45392445      -1.79318450      -1.80968238 
H      -2.64314183      -2.71892220      -1.59110877 
H      -3.26046833      -1.41645306      -2.19751402 
C      -1.35767329      -1.76956393      -2.87325359 
H      -0.58388108      -2.25020732      -2.53976223 
H      -1.67544666      -2.23112459      -3.66505260 
C      -0.93797713      -0.35767055      -3.25886937 
H      -1.70481125       0.22831483      -3.17122456 
H      -0.67201146      -0.35672554      -4.19199622 
C       2.38178702       1.27159851       1.86879441 
C       0.05585554       1.71119002       2.85066964 
C       1.56228596       1.85375309       3.01074855 
H       2.47755975       0.31775683       2.01089689 
H       3.26979859       1.66228070       1.89380217 
H      -0.24944557       2.37312820       2.20859370 
H      -0.36364161       1.91675120       3.70046983 
H       1.82725427       1.41846011       3.83514045 
H       1.77604285       2.79483796       3.09610268 
