24
Properties=species:S:1:pos:R:3 2c24 h20 p=T pbc="F F F" h12=T v,=T c6=T o=T s4=T
V      -0.17676389       0.21042628       0.30902905 
S       1.56781427      -1.11575236       1.25013289 
S      -1.20538967       0.71251900      -1.80653168 
S      -1.30584244      -1.95119993       0.25667772 
S       1.36875417       1.78131416      -0.60919391 
O      -0.94603622       0.98030616       1.50755956 
C       2.88647196      -0.11961738       2.04112163 
H       2.80156863      -0.21311575       3.00269191 
H       3.74457905      -0.49705624       1.78805026 
C       2.90437553       1.37096329       1.70741966 
H       2.10174238       1.78371430       2.06295529 
H       3.66761073       1.78298804       2.14178295 
C       2.98158677       1.64121323       0.21099368 
H       3.48106036       0.92420176      -0.20795230 
H       3.47429092       2.46499346       0.06924354 
C      -2.91164694       0.13486097      -1.51208113 
C      -1.99693666      -2.25665885      -1.40618041 
C      -3.13935920      -1.33853184      -1.81507606 
H      -3.13877836       0.29919864      -0.58440450 
H      -3.51608912       0.66101190      -2.05947256 
H      -1.28179768      -2.16695823      -2.05745799 
H      -2.31115704      -3.17324704      -1.44523481 
H      -3.94485708      -1.62721828      -1.35994588 
H      -3.29037364      -1.43856880      -2.76681411 
