24
Properties=species:S:1:pos:R:3 2c24 h20 p=T pbc="F F F" h12=T v,=T c6=T o=T s4=T
V       0.34737429      -0.15464486      -0.16260293 
S       0.29953068      -0.76713839       2.14185835 
S      -0.94689743       1.03381746      -1.80521772 
S       0.97237594       2.00164496       0.79132266 
S      -1.29950530      -1.78411034      -0.73886508 
O       1.73980934      -0.67125720      -0.80696824 
C       0.25308240      -2.57937515       2.40727633 
H       1.12230942      -2.86049937       2.73282431 
H      -0.39295602      -2.76672338       3.10755341 
C      -0.09973576      -3.43502570       1.19200281 
H       0.60372224      -3.34807770       0.52975223 
H      -0.14021399      -4.36589671       1.46182590 
C      -1.42888936      -3.04512765       0.55984970 
H      -2.01752522      -2.71467109       1.25512038 
H      -1.83757281      -3.83955167       0.18125670 
C       0.21137943       2.36721967      -2.26580106 
C      -0.07833457       3.32303969       0.09423089 
C       0.12823319       3.60595514      -1.38650228 
H       1.11523329       2.01976209      -2.22705946 
H       0.03623834       2.62669933      -3.18439696 
H      -1.00883754       3.08204935       0.23465994 
H       0.08702914       4.14072091       0.58864556 
H       0.94576324       4.11571929      -1.49183650 
H      -0.60277239       4.15903884      -1.70010604 
