24
Properties=species:S:1:pos:R:3 2c24 h20 p=T pbc="F F F" h12=T v,=T c6=T o=T s4=T
V       0.12230466       0.26032450      -0.29714705 
S      -1.62962708      -1.08409042      -1.19784835 
S       1.36737804       0.58757494       1.73471534 
S       1.39544049      -1.78933066      -0.65523333 
S      -1.40245838       1.57340484       0.98751862 
O       0.68270732       1.23125815      -1.46513979 
C      -3.10139110      -0.11386985      -1.69723689 
H      -3.12970654      -0.08299768      -2.66616056 
H      -3.89359245      -0.58981177      -1.39932869 
C      -3.18059082       1.31864577      -1.17270407 
H      -2.45839865       1.83724436      -1.56062535 
H      -4.01820793       1.71462707      -1.46003701 
C      -3.09075519       1.39859772       0.34513141 
H      -3.48403735       0.59683138       0.72142243 
H      -3.61775172       2.15492245       0.64797114 
C       3.05989669       0.19500645       1.17527419 
C       2.30608663      -2.23445135       0.86417600 
C       3.42427804      -1.27985726       1.25619668 
H       3.15880071       0.48874847       0.25706229 
H       3.68963906       0.69999758       1.71400514 
H       1.67242829      -2.28447149       1.59875584 
H       2.68512870      -3.11940838       0.74767808 
H       4.18533249      -1.44278128       0.67864836 
H       3.69825905      -1.48116825       2.16340467 
