24
Properties=species:S:1:pos:R:3 2c24 h20 p=T pbc="F F F" h12=T v,=T c6=T o=T s4=T
V      -0.30401754       0.11861238       0.25402378 
S      -0.68919830       1.15563394      -1.85884186 
S       1.23862396      -1.36535943       1.35122486 
S       1.39273407       1.86495869       0.40063700 
S      -1.04845163      -2.00799235      -0.53516468 
O      -1.43021632       0.63376495       1.29674353 
C      -2.26658853       0.64436095      -2.63810189 
H      -2.88890850       1.38573280      -2.57765709 
H      -2.10028720       0.48191319      -3.58086781 
C      -2.94310154      -0.59405815      -2.05316041 
H      -3.22240894      -0.40161002      -1.14434798 
H      -3.73781173      -0.79485280      -2.57189065 
C      -2.03520373      -1.81633475      -2.04617515 
H      -1.43380882      -1.75988477      -2.80395652 
H      -2.58159606      -2.60966490      -2.16256694 
C       1.87692680      -0.28764438       2.67893098 
C       3.00106155       1.13766200       0.87003637 
C       3.07080582       0.56607372       2.27847689 
H       1.16263875       0.29723367       2.97370162 
H       2.13159875      -0.84248401       3.43332988 
H       3.21397166       0.42984404       0.23972259 
H       3.68474651       1.81968938       0.78167835 
H       3.15031435       1.30064272       2.90569054 
H       3.87384408       0.02944995       2.35451989 
