24
Properties=species:S:1:pos:R:3 2c24 h20 p=T pbc="F F F" h12=T v,=T c6=T o=T s4=T
V      -0.26765181       0.31338070      -0.03433200 
S       1.93018539       1.22850564      -0.17588456 
S      -1.39905370      -1.79316720       0.22672546 
S       0.31571230       0.20459244       2.33168539 
S      -0.16081023      -0.56088364      -2.25327205 
O      -1.33786689       1.52736274      -0.07743237 
C       2.26998629       2.04819975      -1.77883282 
H       2.28097266       3.00690791      -1.63279893 
H       3.15964534       1.78921660      -2.06915590 
C       1.29260235       1.75073618      -2.91450192 
H       0.42251966       2.11321088      -2.68524844 
H       1.59784636       2.19773925      -3.71947285 
C       1.15178897       0.26158183      -3.19889293 
H       1.99511822      -0.17275913      -3.00080520 
H       0.97411873       0.14161674      -4.14520473 
C      -2.29192499      -1.51904116       1.79495362 
C      -0.02227418      -1.46769394       2.98378734 
C      -1.49163962      -1.85843713       3.04351236 
H      -2.55862522      -0.58849829       1.84121828 
H      -3.10046328      -2.05575192       1.78948542 
H       0.44580481      -2.11398324       2.42985176 
H       0.34820587      -1.53007072       3.87779364 
H      -1.89837906      -1.41338334       3.80232744 
H      -1.55127324      -2.81286473       3.19885019 
