24
Properties=species:S:1:pos:R:3 2c24 h20 p=T pbc="F F F" h12=T v,=T c6=T o=T s4=T
V       0.36484862       0.05268636      -0.18743872 
S      -0.77790674      -1.70552603      -1.32356308 
S       0.08059388       1.58553455       1.64432027 
S       0.71876068      -1.71870539       1.45180025 
S      -1.00950287       1.73195190      -1.18276451 
O       1.83492059       0.22371892      -0.84364496 
C      -1.13011406      -1.32198094      -3.08016473 
H      -0.53507939      -1.85329441      -3.63171498 
H      -2.03768606      -1.60599769      -3.27638030 
C      -0.98753336       0.14044169      -3.49789557 
H      -0.05673610       0.40195644      -3.41905752 
H      -1.24317380       0.22947734      -4.42939139 
C      -1.84127240       1.08125468      -2.65867696 
H      -2.64088988       0.60940510      -2.38107126 
H      -2.11773321       1.82776426      -3.21343566 
C       1.45610475       1.08621534       2.73535371 
C       0.23975429      -1.13710715       3.11562413 
C       1.11829574      -0.04073548       3.69993244 
H       2.20371425       0.80902280       2.18451451 
H       1.74096806       1.85889611       3.24881241 
H      -0.67426438      -0.81059338       3.07573610 
H       0.25079003      -1.89434214       3.72131960 
H       1.94476674      -0.44060322       4.01035418 
H       0.66927967       0.33665773       4.47102063 
