24
Properties=species:S:1:pos:R:3 2c24 h20 p=T pbc="F F F" h12=T v,=T c6=T o=T s4=T
V       0.21899380       0.15172118      -0.31630056 
S      -0.54150787      -2.01913277      -0.94638746 
S       0.11571881       1.70656378       1.51606514 
S       1.79250336      -1.17112886       0.99683398 
S      -1.94157291       1.11643004      -0.63369071 
O       1.15423768       0.73693006      -1.50112957 
C      -1.65077383      -2.00141168      -2.40447567 
H      -1.16165018      -2.35866612      -3.16190240 
H      -2.39225974      -2.60317400      -2.22859582 
C      -2.22388196      -0.64337541      -2.80546548 
H      -1.49921711      -0.06906929      -3.09876101 
H      -2.82875696      -0.76413440      -3.55413586 
C      -2.97268528       0.04119859      -1.67015083 
H      -3.37310751      -0.63937352      -1.10838692 
H      -3.69199637       0.57159293      -2.04795733 
C       1.88224684       1.85187048       1.95191886 
C       1.80772340      -0.58929332       2.72809055 
C       2.37549137       0.80628860       2.94086454 
H       2.40823960       1.78378280       1.14082382 
H       2.03734586       2.73263858       2.32876681 
H       0.89710711      -0.60591293       3.06592808 
H       2.32504171      -1.21496256       3.25848037 
H       3.34179047       0.75795387       2.88394380 
H       2.15035999       1.09792785       3.83690052 
