24
Properties=species:S:1:pos:R:3 2c24 h20 p=T pbc="F F F" h12=T v,=T c6=T o=T s4=T
V       0.12170580       0.39375047       0.03423315 
S      -2.25892935       0.36409303       0.17450388 
S       1.99475512      -1.09290848      -0.22518295 
S      -0.36964558       0.06191651      -2.33191286 
S       0.36848948      -0.45045499       2.25366171 
O       0.62387347       1.93224722       0.07696173 
C      -2.89634058       0.98297183       1.77684659 
H      -3.28588249       1.85894541       1.63023374 
H      -3.61094855       0.39307106       2.06702845 
C      -1.88166430       1.09721236       2.91301973 
H      -1.22603671       1.77442540       2.68383881 
H      -2.33936744       1.38719397       3.71762046 
C      -1.16298462      -0.21441744       3.19835127 
H      -1.76536178      -0.94721343       3.00024312 
H      -0.95285241      -0.25384910       4.14479406 
C       2.70701290      -0.48836589      -1.79327762 
C       0.60310595      -1.34021963      -2.98289844 
C       2.10714742      -1.11737374      -3.04189915 
H       2.58356710       0.47171564      -1.84001180 
H       3.66196522      -0.66114283      -1.78721782 
H       0.42881909      -2.11877931      -2.42873117 
H       0.28807291      -1.54454047      -3.87699059 
H       2.30488233      -0.54797807      -3.80084556 
H       2.53983148      -1.97028435      -3.19664431 
