24
Properties=species:S:1:pos:R:3 2c24 h20 p=T pbc="F F F" h12=T v,=T c6=T o=T s4=T
V       0.19506533       0.36377654       0.02529410 
S      -2.09360386       0.73688097       0.58275765 
S       1.69697925      -1.40431091      -0.61022667 
S      -0.73834571       0.27464162      -2.22659082 
S       0.65365005      -0.65129124       2.13687778 
O       0.96776600       1.78640897       0.02987458 
C      -2.33011809       1.35225157       2.29219798 
H      -2.57337779       2.28993677       2.24594749 
H      -3.08081817       0.87725637       2.68422084 
C      -1.13549162       1.21619299       3.23446330 
H      -0.41587552       1.78327158       2.91577302 
H      -1.39138942       1.52854629       4.11645852 
C      -0.62899940      -0.21546263       3.34453203 
H      -1.37880854      -0.81889911       3.23163512 
H      -0.27368078      -0.35137069       4.23713610 
C       2.23357366      -0.83235714      -2.25844969 
C      -0.15921668      -1.22966297      -3.08548012 
C       1.32869856      -1.26667662      -3.40174003 
H       2.28017327       0.13560311      -2.25064429 
H       3.12861501      -1.16753796      -2.42690541 
H      -0.37624258      -2.00040117      -2.53548483 
H      -0.65158998      -1.31857383      -3.91617682 
H       1.49615445      -0.69240297      -4.16428739 
H       1.56736485      -2.16977179      -3.65879174 
