24
Properties=species:S:1:pos:R:3 2c24 h20 p=T pbc="F F F" h12=T v,=T c6=T o=T s4=T
V       0.16315553      -0.18568898       0.33154716 
S       1.33570793       1.86589972       0.00892693 
S      -1.62411686      -1.48364890      -0.62067275 
S       1.55558079      -0.86463489      -1.55269572 
S      -1.75489334       0.92719044       1.21587523 
O       0.83794419      -0.97840984       1.57139564 
C       1.15827768       3.02848366       1.41381956 
H       1.99969651       3.05265936       1.89548107 
H       1.00472072       3.91729088       1.05424348 
C       0.04570161       2.72028136       2.41416655 
H       0.25110006       1.88805719       2.86826273 
H       0.01700026       3.42357932       3.08163344 
C      -1.32368400       2.60438021       1.75869932 
H      -1.35067960       3.19512070       0.99098064 
H      -1.99610824       2.90914960       2.38832270 
C      -0.73706695      -3.00735965      -1.09306219 
C       0.52347388      -1.63172458      -2.84974710 
C      -0.10579563      -2.96592968      -2.47665363 
H      -0.04131235      -3.17612362      -0.43989778 
H      -1.35875195      -3.75174166      -1.05805212 
H      -0.18639228      -1.01153743      -3.08446050 
H       1.06906158      -1.76059489      -3.64102462 
H       0.57595565      -3.65298210      -2.52649686 
H      -0.78523746      -3.18113473      -3.13290332 
