24
Properties=species:S:1:pos:R:3 2c24 h20 p=T pbc="F F F" h12=T v,=T c6=T o=T s4=T
V      -0.32330447       0.10527249      -0.23540510 
S      -0.99309539      -1.73964587       1.11945118 
S       1.57578779       1.52071274      -0.65462195 
S       0.82689734      -1.66702844      -1.45449168 
S      -0.45738898       1.63343526       1.59385378 
O      -1.54119387       0.48486153      -1.23221398 
C      -2.37325859      -1.33853093       2.25570051 
H      -3.17551212      -1.76955936       1.92227631 
H      -2.17465180      -1.72736929       3.12300268 
C      -2.67821072       0.14471636       2.45692165 
H      -2.99393000       0.51854984       1.61933057 
H      -3.39002709       0.23536800       3.10965709 
C      -1.46839525       0.93830817       2.93110083 
H      -0.91076572       0.35926727       3.47226254 
H      -1.77552869       1.66406147       3.49715344 
C       1.90059724       1.15881244      -2.41394875 
C       2.57640968      -1.21290043      -1.71714712 
C       2.81012190      -0.03688654      -2.65397797 
H       1.05460809       0.99893221      -2.85883092 
H       2.30324824       1.94162739      -2.82247715 
H       2.97223346      -1.00315363      -0.85519454 
H       3.04489262      -1.98469600      -2.07105238 
H       2.68797112      -0.34047244      -3.56624162 
H       3.73048592       0.25182729      -2.56346582 
