24
Properties=species:S:1:pos:R:3 2c24 h20 p=T pbc="F F F" h12=T v,=T c6=T o=T s4=T
V       0.19697581      -0.17833143      -0.31689442 
S      -0.10772563      -1.84112592       1.36544046 
S      -0.27022607       2.13999375      -0.75604823 
S       1.94722764       0.54609825       1.21998783 
S      -2.09602444      -0.27264185      -0.97469651 
O       1.04426165      -0.82414347      -1.53591199 
C      -1.14605525      -3.24609481       0.81340765 
H      -0.57015348      -4.01513273       0.68117393 
H      -1.76359762      -3.46641973       1.52961386 
C      -1.95514212      -3.03181569      -0.46446995 
H      -1.34455087      -2.92914445      -1.21121346 
H      -2.49789181      -3.81844518      -0.63060441 
C      -2.86243507      -1.81119421      -0.39242821 
H      -3.14432936      -1.68851366       0.52658221 
H      -3.65628259      -1.98259484      -0.92336350 
C       1.41824330       2.80898851      -0.93831457 
C       1.78733547       2.33484260       1.55291676 
C       2.06751903       3.24542709       0.36648717 
H       1.97653520       2.13307790      -1.35139385 
H       1.38699891       3.57055336      -1.53903521 
H       0.88534811       2.50929663       1.86853841 
H       2.39593567       2.56994037       2.27036254 
H       3.02644433       3.29316909       0.23422551 
H       1.75810641       4.13778848       0.58229507 
