24
Properties=species:S:1:pos:R:3 2c24 h20 p=T pbc="F F F" h12=T v,=T c6=T o=T s4=T
V       0.33053849       0.03844447      -0.24554017 
S      -1.35556132       1.50566665      -1.07758924 
S       0.72032086      -1.54449786       1.52311146 
S      -1.09302941      -1.62746383      -1.31717017 
S       0.83639143       1.48617257       1.58411672 
O       1.60764313       0.10114210      -1.23853718 
C      -0.86255797       3.26979685      -1.03760712 
H      -0.68680166       3.55618244      -1.94736585 
H      -1.61623690       3.78785091      -0.71135410 
C       0.35751905       3.61495828      -0.18567759 
H       1.14210236       3.19702047      -0.57393777 
H       0.49346436       4.57526808      -0.20264236 
C       0.21654120       3.16092956       1.26079068 
H      -0.71996293       3.19769657       1.50717096 
H       0.69525514       3.78413698       1.82992144 
C       1.00845608      -3.07292497       0.56781440 
C      -1.44934225      -2.98891842      -0.15291244 
C      -0.25396260      -3.85043281       0.22674867 
H       1.46257050      -2.84218293      -0.25663553 
H       1.60001211      -3.64992352       1.07669224 
H      -1.82507396      -2.60911441       0.65838716 
H      -2.12685497      -3.56061840      -0.54601455 
H      -0.05911777      -4.44922438      -0.50999710 
H      -0.49647074      -4.39605472       0.98970646 
