24
Properties=species:S:1:pos:R:3 2c24 h20 p=T pbc="F F F" h12=T v,=T c6=T o=T s4=T
V       0.17096190       0.04425259      -0.37394836 
S      -1.18311278      -1.91816579      -0.43204314 
S       0.83656290       1.80909283       1.11872693 
S       1.65723559      -1.44960427       0.85469686 
S      -1.72942860       1.48625083      -0.46671242 
O       0.92410762       0.19614819      -1.79896401 
C      -2.55763576      -1.81244759      -1.63882252 
H      -2.34496244      -2.38574838      -2.39159353 
H      -3.35729400      -2.16965046      -1.21953053 
C      -2.88308603      -0.42050965      -2.17743106 
H      -2.13193939      -0.10131579      -2.70172386 
H      -3.65174073      -0.48108533      -2.76604331 
C      -3.18291777       0.58534412      -1.07441409 
H      -3.59058639       0.11694660      -0.33043484 
H      -3.82926968       1.22785415      -1.40739219 
C       2.64158743       1.54683723       1.18809728 
C       2.19198411      -0.65928788       2.41208493 
C       3.09407698       0.55523635       2.24947662 
H       2.94268389       1.23281193       0.32212469 
H       3.07272357       2.39978111       1.35671187 
H       1.40095517      -0.39096250       2.90797517 
H       2.65954022      -1.31909699       2.94728286 
H       3.98619997       0.24899280       2.02667261 
H       3.14784827       1.01602094       3.10000837 
