24
Properties=species:S:1:pos:R:3 2c24 h20 p=T pbc="F F F" h12=T v,=T c6=T o=T s4=T
V       0.02103922       0.18693042       0.36829066 
S      -2.28691919      -0.10657154      -0.15626982 
S       2.20938897      -0.25276973      -0.52812135 
S      -0.20282699       1.98261915      -1.26742716 
S       0.30045798      -2.12147008       0.90927170 
O       0.13565725       0.99618442       1.76576732 
C      -3.16897975      -1.17942384       1.03862069 
H      -3.74522296      -0.61904099       1.58128334 
H      -3.74070284      -1.78419395       0.53838194 
C      -2.29673646      -2.01344029       1.97516564 
H      -1.80746996      -1.41819061       2.56447461 
H      -2.86792891      -2.57232616       2.52502890 
C      -1.30760605      -2.89919703       1.22995200 
H      -1.70087838      -3.15839548       0.38304700 
H      -1.16366824      -3.70740463       1.74720118 
C       2.86842526       1.44169593      -0.68986528 
C       1.12217144       1.85894354      -2.51846555 
C       2.52925798       2.12700145      -2.00510940 
H       2.52238758       1.97966729       0.03816235 
H       3.83391085       1.40919703      -0.59710799 
H       1.09951724       0.96717901      -2.90301106 
H       0.93123427       2.48718080      -3.23208628 
H       2.63962369       3.08335984      -1.89326924 
H       3.16370028       1.83685935      -2.67735830 
