24
Properties=species:S:1:pos:R:3 2c24 h20 p=T pbc="F F F" h12=T v,=T c6=T o=T s4=T
V      -0.09573039      -0.22252545       0.33517422 
S      -0.62697926       2.05357984       0.80961965 
S       0.78538424      -1.60578598      -1.42436909 
S       2.16909564       0.59883034       0.71743669 
S      -2.01171510      -0.48840280      -1.06402556 
O      -0.37764883      -1.10738701       1.66126334 
C      -2.40817764       2.32612287       1.14106925 
H      -2.51834801       2.48944904       2.09067706 
H      -2.68344946       3.13208360       0.67469418 
C      -3.35448752       1.19624566       0.73934380 
H      -3.16639078       0.41746252       1.28624909 
H      -4.26776954       1.47053178       0.91723961 
C      -3.22997332       0.81443695      -0.72933100 
H      -2.98599158       1.60419803      -1.23514262 
H      -4.09714429       0.51742693      -1.04755090 
C       2.28727853      -2.27068656      -0.62817529 
C       3.25702563       0.10116424      -0.66269024 
C       3.52093820      -1.39298298      -0.77739140 
H       2.10814954      -2.39558319       0.31601384 
H       2.47947849      -3.14285406      -1.00791934 
H       2.85893342       0.40810273      -1.49392052 
H       4.10766894       0.55608271      -0.56344935 
H       4.16439421      -1.64541886      -0.09801619 
H       3.92360782      -1.57004515      -1.64059718 
