24
Properties=species:S:1:pos:R:3 2c24 h20 p=T pbc="F F F" h12=T v,=T c6=T o=T s4=T
V       0.21402729       0.30427504       0.18064512 
S      -0.00412591      -1.46059720       1.76986325 
S      -0.38608244       0.86481546      -2.08020164 
S      -2.11355062       0.67677118       0.80819157 
S       1.87907998      -0.87520055      -1.05866319 
O       0.97247860       1.54736730       0.88806550 
C       1.60372606      -2.17161406       2.28568618 
H       1.78850151      -1.87801086       3.19134789 
H       1.51481486      -3.13830520       2.30704082 
C       2.81066756      -1.82308533       1.41658999 
H       2.98290701      -0.87075433       1.48283342 
H       3.59010028      -2.29019307       1.75608791 
C       2.61176330      -2.19189938      -0.04720665 
H       2.04078927      -2.97343839      -0.09496095 
H       3.47189798      -2.43221902      -0.42652071 
C      -1.43571481       2.33346767      -1.80994926 
C      -3.15385830       0.79827885      -0.68814040 
C      -2.90323178       2.02155064      -1.55766589 
H      -1.08891949       2.82696869      -1.05141829 
H      -1.37045149       2.90894110      -2.58866201 
H      -3.01093040       0.00293758      -1.22724737 
H      -4.08474038       0.80072438      -0.41639384 
H      -3.31469533       2.79019907      -1.13436041 
H      -3.34213023       1.88890103      -2.41112373 
