24
Properties=species:S:1:pos:R:3 2c24 h20 p=T pbc="F F F" h12=T v,=T c6=T o=T s4=T
V       0.28271219      -0.28675886      -0.09416379 
S      -1.44566822      -0.41848237      -1.73225086 
S       0.89945911       0.95273175       1.87282670 
S      -1.39559509      -1.43665792       1.25164590 
S       1.18390779       1.70571689      -1.05193990 
O       1.36256922      -1.45724864      -0.38542451 
C      -0.86134567      -0.05534405      -3.43033918 
H      -0.83674023      -0.88795106      -3.92705647 
H      -1.51598748       0.51894387      -3.85986270 
C       0.50815942       0.61081395      -3.54949289 
H       1.18731140      -0.00470209      -3.23187435 
H       0.68920288       0.79628355      -4.48425924 
C       0.60513326       1.90907221      -2.75993042 
H      -0.26876190       2.32755070      -2.74325520 
H       1.21025859       2.50971902      -3.22308384 
C       0.93079704      -0.37332238       3.12674143 
C      -1.60851701      -0.58182181       2.85162496 
C      -0.41145428      -0.64665429       3.78870537 
H       1.24122553      -1.18970954       2.70682996 
H       1.57281412      -0.13494020       3.81435361 
H      -1.81217247       0.35173137       2.67659534 
H      -2.37466571      -0.96532321       3.30586769 
H      -0.38365526      -1.52711535       4.19284114 
H      -0.54159994      -0.00285217       4.50088442 
