24
Properties=species:S:1:pos:R:3 2c24 h20 p=T pbc="F F F" h12=T v,=T c6=T o=T s4=T
V       0.21858755      -0.34548891      -0.06229396 
S       1.36019325       1.43425392      -1.16557588 
S      -1.73936288      -0.76438840       1.27064214 
S      -1.24344214      -0.13476105      -2.00349200 
S       0.94647233       0.38190600       2.09189466 
O       1.00407200      -1.72904346      -0.36189594 
C       3.04014355       1.73763846      -0.50034583 
H       3.68565474       1.41640877      -1.14895567 
H       3.16495187       2.69708053      -0.41820704 
C       3.36217309       1.09788280       0.84891987 
H       3.35780248       0.13292170       0.74982440 
H       4.25449035       1.36453980       1.12026427 
C       2.37548214       1.49026810       1.94014032 
H       2.05459624       2.38673220       1.75991988 
H       2.84389175       1.51059362       2.78963644 
C      -2.64822038      -1.93103200       0.20077087 
C      -2.98476976      -0.01359907      -1.46580117 
C      -3.55687767      -1.26918621      -0.82433755 
H      -2.00672531      -2.48693414      -0.26681481 
H      -3.18568275      -2.51236752       0.76202459 
H      -3.06029055       0.71800473      -0.83122656 
H      -3.52944722       0.21299509      -2.23546029 
H      -3.75320209      -1.91066873      -1.52381383 
H      -4.39442632      -1.04176922      -0.39374280 
