24
Properties=species:S:1:pos:R:3 2c24 h20 p=T pbc="F F F" h12=T v,=T c6=T o=T s4=T
V      -0.33647396       0.12191014      -0.20723618 
S      -0.95949235      -1.74804284       1.13556056 
S       1.56803474       1.49779872      -0.72254435 
S       0.66732896      -1.63971052      -1.56342910 
S      -0.28972908       1.59134463       1.67372777 
O      -1.61258486       0.56785772      -1.09810209 
C      -2.23961047      -1.34724400       2.38354458 
H      -3.07676581      -1.74469959       2.09759369 
H      -1.98937225      -1.77009444       3.22105955 
C      -2.48444759       0.13629236       2.65314229 
H      -2.84968782       0.54638080       1.85350739 
H      -3.14322538       0.22466520       3.35965903 
C      -1.21981683       0.88007607       3.06030585 
H      -0.64139816       0.26820462       3.54003517 
H      -1.46259572       1.59472257       3.67006247 
C       1.75141777       1.18596280      -2.51163149 
C       2.40553216      -1.22534401      -1.94153434 
C       2.60464993      -0.02561971      -2.85602647 
H       0.87055948       1.06432040      -2.89695121 
H       2.14610036       1.97059786      -2.92442198 
H       2.86985900      -1.05541154      -1.10537887 
H       2.82339964      -1.99749821      -2.35330888 
H       2.40661997      -0.29514955      -3.76566814 
H       3.53739713       0.23450596      -2.82544292 
