24
Properties=species:S:1:pos:R:3 2c24 h20 p=T pbc="F F F" h12=T v,=T c6=T o=T s4=T
V       0.24669943       0.32758575       0.05339114 
S      -1.88009303       1.13964280      -0.65745084 
S       1.38569742      -1.73036073       0.55668545 
S       0.41952329      -0.24583866      -2.31124482 
S      -0.54574324      -0.12624321       2.25918399 
O       1.26181235       1.58170232       0.18646151 
C      -2.69015189       2.22276424       0.57845320 
H      -2.64754035       3.13619134       0.25533848 
H      -3.62813182       1.97674308       0.62865508 
C      -2.11260830       2.19041715       1.99227968 
H      -1.21118874       2.54828895       1.97331891 
H      -2.64716047       2.76217868       2.56526010 
C      -2.07879605       0.78854529       2.58549071 
H      -2.82375026       0.28260147       2.22749752 
H      -2.20224184       0.85460134       3.54562720 
C       2.72045121      -1.70526239      -0.68810617 
C       0.92780820      -1.99029189      -2.49710205 
C       2.34078886      -2.30977769      -2.03159526 
H       2.99627384      -0.78687493      -0.82834109 
H       3.48344356      -2.18972683      -0.33461020 
H       0.30644037      -2.54624082      -1.99864920 
H       0.85017662      -2.23550280      -3.43210930 
H       2.96520628      -1.99229850      -2.70138629 
H       2.43731540      -3.27216341      -1.97578831 
