24
Properties=species:S:1:pos:R:3 2c24 h20 p=T pbc="F F F" h12=T v,=T c6=T o=T s4=T
V      -0.33641597      -0.15737304      -0.18188366 
S      -0.91259723       2.00453012       0.64405157 
S       1.52713528      -1.67336512      -0.30316877 
S      -0.54271984      -0.72331336       2.18187122 
S       0.89866915       0.75415973      -2.01030400 
O      -1.65895532      -0.83623158      -0.82298512 
C      -1.40321714       3.17573032      -0.67670141 
H      -2.36263095       3.30738107      -0.62415482 
H      -0.98295001       4.03183191      -0.49416759 
C      -1.05599758       2.76984346      -2.10785573 
H      -1.56467637       1.97826045      -2.34371836 
H      -1.31889289       3.48250086      -2.71115443 
C       0.42717145       2.48288489      -2.29799175 
H       0.93190025       3.04662873      -1.69256894 
H       0.67687926       2.72595125      -3.20354633 
C       0.88056611      -3.09879536       0.63587368 
C       0.93827576      -1.63561608       2.73897922 
C       1.11324375      -3.02225127       2.13738869 
H      -0.07207154      -3.17079000       0.47315376 
H       1.29751225      -3.90752017       0.29831980 
H       1.72401375      -1.10596271       2.52516726 
H       0.90122191      -1.72251109       3.70410609 
H       0.49851748      -3.62889404       2.57716858 
H       2.01217545      -3.32986996       2.32688959 
