24
Properties=species:S:1:pos:R:3 2c24 h20 p=T pbc="F F F" h12=T v,=T c6=T o=T s4=T
V      -0.33262081       0.19568969      -0.14863573 
S       0.76305697       1.68588596       1.35694868 
S      -0.12467573      -2.01858865      -1.06487564 
S      -1.05272152      -0.82355834       1.94725914 
S       1.30865986       0.53758028      -1.84827004 
O      -1.68883354       0.90169871      -0.68080925 
C       1.36088932       3.21832266       0.55007790 
H       0.78822869       3.95024601       0.82741513 
H       2.25363252       3.40723854       0.88200161 
C       1.41263813       3.20639394      -0.97658121 
H       0.50897451       3.13792217      -1.32254742 
H       1.78658869       4.04598562      -1.28675958 
C       2.24581709       2.05902398      -1.53123634 
H       2.95631357       1.86011848      -0.90296379 
H       2.65858624       2.34761420      -2.36057443 
C      -1.66408789      -2.79267788      -0.46262995 
C      -0.72444344      -2.62000632       1.91529556 
C      -1.55658952      -3.41624306       0.92090023 
H      -2.36287982      -2.12140174      -0.44657771 
H      -1.93261044      -3.48028812      -1.09263814 
H       0.21504079      -2.75715267       1.70988691 
H      -0.88221132      -2.97751066       2.80281658 
H      -2.44946007      -3.52351043       1.28226716 
H      -1.16970307      -4.30003729       0.83232999 
