24
Properties=species:S:1:pos:R:3 2c24 h20 p=T pbc="F F F" h12=T v,=T c6=T o=T s4=T
V      -0.23276180       0.16860871       0.29734944 
S       1.63394330      -0.87507137       1.35286973 
S      -1.16734548       0.55486006      -1.88510985 
S      -0.97328473      -2.14869858       0.11874480 
S       1.09062865       2.00232546      -0.46787521 
O      -1.20995917       0.76299142       1.44310894 
C       2.70135756       0.30322784       2.26338826 
H       2.56052082       0.16815211       3.21338168 
H       3.62761586       0.08216349       2.07357498 
C       2.49263847       1.78515978       1.95708392 
H       1.60713174       2.04722650       2.25404825 
H       3.14002524       2.30570825       2.45796664 
C       2.63677984       2.10913139       0.47635675 
H       3.28058000       1.49847456       0.08685112 
H       2.99263619       3.00750190       0.38825997 
C      -2.76893992      -0.30822903      -1.73788126 
C      -1.47426551      -2.51544393      -1.59896578 
C      -2.72083796      -1.78923013      -2.08265244 
H      -3.09050418      -0.21195159      -0.82875720 
H      -3.41010722       0.12569585      -2.32306175 
H      -0.73707654      -2.28811753      -2.18931107 
H      -1.62529210      -3.47005729      -1.67832515 
H      -3.49828948      -2.22188471      -1.69834877 
H      -2.77990268      -1.88458343      -3.04496068 
