24
Properties=species:S:1:pos:R:3 2c24 h20 p=T pbc="F F F" h12=T v,=T c6=T o=T s4=T
V       0.12199096      -0.25381449      -0.30285319 
S       2.02807616       0.21426943       1.05203272 
S      -2.22356623       0.25427687      -0.46400520 
S       0.58619436       2.00104478      -1.10927230 
S      -0.79863080      -1.74201716       1.32107925 
O       0.58672382      -1.17605689      -1.54963411 
C       2.72848342      -1.27667994       1.85409621 
H       3.56129419      -1.49753332       1.40887949 
H       2.94244090      -1.05350576       2.77456808 
C       1.84587903      -2.52347419       1.85877057 
H       1.72323362      -2.82684978       0.94558368 
H       2.29776548      -3.22882191       2.34789946 
C       0.48159586      -2.28005121       2.48945592 
H       0.57496201      -1.60565277       3.17906781 
H       0.18658537      -3.09947857       2.91720814 
C      -2.29028886       1.08934808      -2.08570429 
C      -0.93623068       3.00899535      -1.06161556 
C      -2.02713649       2.58691377      -2.03478244 
H      -1.63680265       0.67962770      -2.67244482 
H      -3.16696876       0.94163181      -2.47485051 
H      -1.29811568       2.97672884      -0.16071015 
H      -0.70055807       3.93133878      -1.24637117 
H      -1.78177601       2.88840968      -2.92259359 
H      -2.84960618       3.03708876      -1.79084775 
