24
Properties=species:S:1:pos:R:3 2c24 h20 p=T pbc="F F F" h12=T v,=T c6=T o=T s4=T
V      -0.13632194       0.12724104       0.36912015 
S      -1.99443649      -0.80600063      -0.79897635 
S       2.21713281       0.54608653       0.10156732 
S      -0.56044742       1.97883132      -1.16121246 
S       0.78499436      -2.02471440       0.83785485 
O      -0.65680710       0.71471816       1.78507784 
C      -2.71387752      -2.26839757       0.03804576 
H      -3.56325504      -2.00781419       0.42691855 
H      -2.89850256      -2.94291787      -0.63559282 
C      -1.86499458      -2.90951412       1.13434663 
H      -1.77357460      -2.28337649       1.86959012 
H      -2.32303538      -3.69621290       1.46941002 
C      -0.47921908      -3.31306975       0.64952042 
H      -0.53713087      -3.55589448      -0.28684352 
H      -0.19545788      -4.10028433       1.14067940 
C       2.26513650       2.36649807       0.22607123 
C       0.98902984       2.47063768      -1.99383500 
C       2.04337789       3.09441098      -1.09131676 
H       1.58635390       2.65210316       0.85604217 
H       3.12746245       2.63026729       0.58473860 
H       1.37255398       1.68543962      -2.41810577 
H       0.77344513       3.10342212      -2.69633103 
H       1.78380893       4.00838424      -0.90003944 
H       2.88345449       3.12454520      -1.57296113 
