24
Properties=species:S:1:pos:R:3 2c24 h20 p=T pbc="F F F" h12=T v,=T c6=T o=T s4=T
V       0.37703324      -0.16984073       0.00486911 
S      -0.46374558      -0.35365314      -2.21937979 
S      -0.24261475       0.67336153       2.17069727 
S      -1.17842020      -2.01420120       0.36415442 
S       0.82966690       2.16075506      -0.24591810 
O       1.81749223      -0.90531720       0.07644141 
C       0.54614308       0.55192676      -3.45098693 
H       1.03589182      -0.09811141      -3.97839994 
H      -0.05628640       1.01851314      -4.05284144 
C       1.54557316       1.56551427      -2.89665119 
H       2.22472477       1.09408715      -2.38920809 
H       1.98497861       2.01327914      -3.63651152 
C       0.89324089       2.61132376      -2.00276504 
H      -0.01067956       2.76617926      -2.31588267 
H       1.38233103       3.44458604      -2.09181089 
C      -0.22721609      -0.85993921       3.16087679 
C      -2.24724782      -1.66088554       1.80248300 
C      -1.53845042      -1.63133979       3.14859422 
H       0.47539540      -1.43770462       2.82665574 
H      -0.00894822      -0.63404792       4.07911140 
H      -2.67719714      -0.80119597       1.66209120 
H      -2.94629135      -2.33202079       1.83866626 
H      -1.36342528      -2.54365581       3.42491988 
H      -2.13470010      -1.23772772       3.80294422 
