24
Properties=species:S:1:pos:R:3 2c24 h20 p=T pbc="F F F" h12=T v,=T c6=T o=T s4=T
V      -0.34669619      -0.22342701       0.03009593 
S       1.30553668      -1.27649834       1.38992918 
S      -0.64040989       1.67715218      -1.41465191 
S       0.95813500      -1.27215999      -1.74409729 
S      -0.68579430       1.52951236       1.61491902 
O      -1.69133554      -1.12462289       0.05768862 
C       0.85524625      -1.32760820       3.16515663 
H       0.61969547      -2.24063001       3.39203751 
H       1.64185048      -1.09387539       3.68426716 
C      -0.29146726      -0.41758077       3.60151254 
H      -1.11124399      -0.71795243       3.17874557 
H      -0.40737998      -0.49339015       4.56160682 
C      -0.05498732       1.04387019       3.24580812 
H       0.89760483       1.21948376       3.27449832 
H      -0.47713565       1.59972985       3.91980750 
C      -1.03079615       0.85656680      -2.99766865 
C       1.36895626      -0.04199331      -3.03014914 
C       0.18609708       0.48266778      -3.83068460 
H      -1.53886456       0.05227263      -2.81285291 
H      -1.59595644       1.44632673      -3.52169116 
H       1.81118191       0.71117562      -2.60493685 
H       2.00331707      -0.44060338      -3.64585198 
H      -0.07507738      -0.19359392      -4.47393275 
H       0.47183347       1.26340230      -4.32810432 
