24
Properties=species:S:1:pos:R:3 2c24 h20 p=T pbc="F F F" h12=T v,=T c6=T o=T s4=T
V      -0.16949230       0.32982051      -0.18306947 
S       0.17091033       0.87963010       2.11253821 
S       0.15721701      -1.47599040      -1.73808500 
S      -2.03414955      -0.92607861       0.76348090 
S       2.15239247       0.55485941      -0.69066853 
O      -0.91350723       1.57145782      -0.90815494 
C       1.32749016       2.27945580       2.35670475 
H       0.81241131       3.05396947       2.63127766 
H       1.92510599       2.05483339       3.08831468 
C       2.17787150       2.67612020       1.15129312 
H       1.59666107       3.01661542       0.45326276 
H       2.78038697       3.39064657       1.41089092 
C       2.99498784       1.51718888       0.59677856 
H       3.22523854       0.92313072       1.32696660 
H       3.82229971       1.86776635       0.23056161 
C      -1.56300841      -1.81858560      -2.24321551 
C      -2.01286302      -2.64311867       0.14111940 
C      -2.30001718      -2.80055429      -1.34482765 
H      -2.05401335      -0.98319170      -2.25772923 
H      -1.55650712      -2.17049391      -3.14761631 
H      -1.14044411      -3.02711050       0.32838382 
H      -2.66850862      -3.15811817       0.63639504 
H      -3.25285916      -2.69544862      -1.48749909 
H      -2.06282275      -3.70126769      -1.61142142 
