24
Properties=species:S:1:pos:R:3 2c24 h20 p=T pbc="F F F" h12=T v,=T c6=T o=T s4=T
V      -0.13975460      -0.38832003       0.02645473 
S      -0.64148439       0.40676598      -2.16536749 
S       0.90023455       0.32031752       2.07633782 
S      -2.04019751       1.03312270       0.59037335 
S       2.17322688      -0.67304522      -0.49171169 
O      -0.75333530      -1.87750489       0.19021526 
C       0.18773544      -0.55086047      -3.48905637 
H      -0.48092087      -1.09379119      -3.93480619 
H       0.53564531       0.07584259      -4.14407926 
C       1.32985509      -1.46611710      -3.05159066 
H       0.97190378      -2.17095590      -2.48939668 
H       1.72027834      -1.88160997      -3.83638311 
C       2.42090636      -0.72723854      -2.28873227 
H       2.47113763       0.18127056      -2.62217354 
H       3.27216988      -1.15538576      -2.47177525 
C      -0.50279178       0.20643167       3.23834079 
C      -1.60289791       2.14415920       1.97253850 
C      -1.36537128       1.45760551       3.30951541 
H      -1.06174371      -0.54089949       2.97709692 
H      -0.15661478       0.01761661       4.12509492 
H      -0.79943747       2.63375487       1.73091930 
H      -2.31523267       2.79279774       2.08317685 
H      -2.22409955       1.22022307       3.69101969 
H      -0.94390330       2.08974494       3.91066642 
