24
Properties=species:S:1:pos:R:3 2c24 h20 p=T pbc="F F F" h12=T v,=T c6=T o=T s4=T
V      -0.38527703      -0.06457849      -0.13570140 
S       0.30250842       2.07910908      -0.92280617 
S       0.42436951      -1.92814268       1.15168600 
S      -0.62368863       1.17396354       1.95220674 
S       0.96022050      -1.20433899      -1.74505859 
O      -1.92348465      -0.30934816      -0.57726168 
C       0.35317901       2.19591047      -2.75053594 
H      -0.39515655       2.74046096      -3.04040931 
H       1.16620257       2.66347670      -3.00198673 
C       0.30627918       0.87542659      -3.51710688 
H      -0.55458554       0.45404621      -3.36764297 
H       0.38677333       1.05797604      -4.46640147 
C       1.41020306      -0.08818215      -3.10346744 
H       2.18699982       0.42644779      -2.83731359 
H       1.66086454      -0.62231534      -3.87374979 
C      -0.76483544      -1.94013281       2.53637066 
C       0.23133506       0.29262114       3.30431014 
C      -0.38309100      -1.04114779       3.70283639 
H      -1.63173944      -1.66370924       2.20283363 
H      -0.85262619      -2.85011897       2.86200927 
H       1.15262361       0.13949661       3.03707856 
H       0.24779214       0.86805417       4.08469440 
H      -1.17572606      -0.86916980       4.23336764 
H       0.24705039      -1.51562175       4.26534360 
