24
Properties=species:S:1:pos:R:3 2c24 h20 p=T pbc="F F F" h12=T v,=T c6=T o=T s4=T
V      -0.22896923       0.13990257      -0.31468080 
S      -1.68696571      -0.18425409       1.54465992 
S       2.08708938      -0.06993337      -0.92917788 
S      -0.39460317      -2.29179702      -0.41260617 
S       0.69268604       2.13372289       0.62056265 
O      -1.11147577       0.60436252      -1.58999625 
C      -2.48825751       1.36223949       2.11307461 
H      -3.42138635       1.33454794       1.85025971 
H      -2.46104073       1.37876987       3.08355850 
C      -1.88683292       2.66821242       1.59709845 
H      -2.01591632       2.71755820       0.63694668 
H      -2.35903303       3.41419006       1.99897934 
C      -0.40173322       2.79846060       1.90661679 
H      -0.21719612       2.33788633       2.73903042 
H      -0.19286645       3.73699019       2.03700558 
C       1.98380122      -1.30846984      -2.26598855 
C       1.27350824      -3.02989932      -0.50546552 
C       2.03710557      -2.75318724      -1.79217903 
H       1.15641643      -1.17195413      -2.75176354 
H       2.71559705      -1.15809385      -2.88541122 
H       1.79847932      -2.69796745       0.24143410 
H       1.19154672      -3.99017200      -0.39798386 
H       1.67960480      -3.32152180      -2.49110621 
H       2.96433155      -3.00118634      -1.66039700 
