24
Properties=species:S:1:pos:R:3 2c24 h20 p=T pbc="F F F" h12=T v,=T c6=T o=T s4=T
V      -0.13278350      -0.21360845      -0.32827369 
S       2.00293013      -1.08472543       0.27824233 
S      -1.72633246       1.45784123       0.34449893 
S       1.25199434       1.58105152      -1.22925804 
S      -1.21297344      -1.29795865       1.50388966 
O      -0.64045900      -0.97160233      -1.66568956 
C       1.95024023      -2.84783027       0.77371313 
H       2.34951495      -3.37432519       0.06381827 
H       2.50513113      -2.95762899       1.56294904 
C       0.56974188      -3.42709043       1.07734157 
H       0.04358012      -3.43278066       0.26241189 
H       0.67029217      -4.34568405       1.37236568 
C      -0.17843908      -2.64323388       2.14695902 
H       0.46709404      -2.26923050       2.76542771 
H      -0.74160572      -3.25685387       2.64473225 
C      -1.77894724       2.51116295      -1.14528253 
C       0.63841454       3.19908741      -0.64488382 
C      -0.72633180       3.60909227      -1.17840564 
H      -1.66516250       1.94906654      -1.92648682 
H      -2.65658098       2.92113314      -1.20449379 
H       0.59641802       3.17965932       0.32542091 
H       1.28217675       3.88037987      -0.89348875 
H      -0.62178266       3.91011408      -2.09370096 
H      -1.04772759       4.36111162      -0.65899279 
