24
Properties=species:S:1:pos:R:3 2c24 h20 p=T pbc="F F F" h12=T v,=T c6=T o=T s4=T
V       0.29450528       0.25248547       0.14332261 
S       0.94451123      -1.98048116       0.67184079 
S      -1.47257919       1.47594754      -0.93663958 
S      -1.21817567      -0.12335062       2.01968357 
S       0.87213141      -0.01159511      -2.15799390 
O       1.38560030       1.27145098       0.76957438 
C       2.51496724      -2.48419793      -0.12612132 
H       3.20442682      -2.51670414       0.55516920 
H       2.40479612      -3.38558030      -0.46996013 
C       3.01299713      -1.59699594      -1.26557168 
H       3.24092691      -0.72396823      -0.90939817 
H       3.81968301      -1.98523677      -1.63905634 
C       1.98532970      -1.42817655      -2.37628631 
H       1.45232978      -2.23567875      -2.43056640 
H       2.45374555      -1.32747761      -3.22003429 
C      -2.09464145       2.48865649       0.44869897 
C      -2.92424146       0.32792836       1.54883292 
C      -3.15965619       1.80997478       1.29703849 
H      -1.34800414       2.72517065       1.01946447 
H      -2.46204063       3.31231671       0.09033574 
H      -3.16092873      -0.16235345       0.74432355 
H      -3.52480501       0.03725550       2.25255609 
H      -3.20995135       2.26373293       2.15195610 
H      -4.01746427       1.91639633       0.85947957 
