24
Properties=species:S:1:pos:R:3 2c24 h20 p=T pbc="F F F" h12=T v,=T c6=T o=T s4=T
V      -0.01653848       0.40308179      -0.09096808 
S       2.03643341       0.01067225       1.05763992 
S      -1.96672751      -0.76357284      -0.87928592 
S      -0.90735444       0.20356902       2.17107269 
S       0.80115811      -0.58000371      -2.10699471 
O      -0.15121164       1.98966276      -0.38353315 
C       3.51528989       0.39102924       0.04515867 
H       3.91173923       1.20914667       0.38291556 
H       4.16324146      -0.32026556       0.17581646 
C       3.28629599       0.55731325      -1.45598079 
H       2.73441132       1.34078807      -1.60624543 
H       4.14007571       0.70751467      -1.89125490 
C       2.61441262      -0.65326579      -2.08950936 
H       2.88782607      -1.44753850      -1.60632100 
H       2.93014786      -0.74111069      -3.00277760 
C      -3.28207992       0.06981970       0.07308412 
C      -2.29864391      -0.97956008       2.19415286 
C      -3.54541941      -0.53301115       1.44486853 
H      -3.04062075       1.00164727       0.18521945 
H      -4.10420749       0.03997684      -0.44173447 
H      -1.99432101      -1.81933975       1.81232813 
H      -2.54083963      -1.15182265       3.11722406 
H      -4.01248762       0.12142102       1.98604872 
H      -4.13234443      -1.29656239       1.33938591 
