24
Properties=species:S:1:pos:R:3 2c24 h20 p=T pbc="F F F" h12=T v,=T c6=T o=T s4=T
V       0.16471241       0.13950938       0.35274722 
S       1.82545333      -1.17487092      -0.74375776 
S      -2.09837404       0.90348169       0.06893147 
S      -0.72894065      -2.06950409       0.87412095 
S       0.46622979       1.96756259      -1.15282807 
O       0.75051956       0.62812484       1.78070214 
C       3.32233160      -0.21924938      -1.19425652 
H       4.04017361      -0.48075282      -0.59685654 
H       3.58598615      -0.47481158      -2.09315986 
C       3.19584312       1.30241846      -1.14913549 
H       3.05039223       1.58001224      -0.23110789 
H       4.02870707       1.69792059      -1.45059782 
C       2.05770045       1.82725050      -2.01369892 
H       1.94789076       1.23604510      -2.77364172 
H       2.30428056       2.70168163      -2.35433480 
C      -2.90888707       0.14267394       1.51666901 
C      -2.50128219      -2.14662783       0.43952808 
C      -3.41709460      -1.27217419       1.28327009 
H      -2.27860009       0.12811048       2.25267560 
H      -3.65692106       0.70094814       1.78237109 
H      -2.60094916      -1.88819641      -0.49155309 
H      -2.79768921      -3.06659565       0.51824079 
H      -3.54611257      -1.70046947       2.14305361 
H      -4.28200147      -1.22226412       0.84960760 
