24
Properties=species:S:1:pos:R:3 2c24 h20 p=T pbc="F F F" h12=T v,=T c6=T o=T s4=T
V      -0.11737626      -0.00448894       0.39651772 
S      -0.26862311       2.24858454      -0.37079152 
S       0.47315808      -2.20407222      -0.37734781 
S       2.26024639       0.53998672       0.42188823 
S      -2.09996939      -0.64583273      -0.76857920 
O      -0.48688790      -0.04083146       1.97230664 
C      -1.97226899       2.91994989      -0.31024809 
H      -2.02162577       3.55626312       0.41998291 
H      -2.13444944       3.40983780      -1.13278096 
C      -3.09744733       1.90227514      -0.13186633 
H      -3.01418998       1.48955437       0.74204369 
H      -3.94962593       2.36471454      -0.16195423 
C      -3.08661445       0.81550531      -1.19821584 
H      -2.74021337       1.19231520      -2.02108621 
H      -4.00036012       0.53483819      -1.36482669 
C       1.87988214      -2.59470383       0.71820601 
C       3.20702662      -0.74751012      -0.46240393 
C       3.22959499      -2.11394344       0.20664970 
H       1.71716033      -2.19519694       1.58601666 
H       1.91956807      -3.55654480       0.84112667 
H       2.83252425      -0.84710609      -1.35316824 
H       4.12137201      -0.44119507      -0.56505482 
H       3.84940084      -2.08249092       0.95107003 
H       3.56858668      -2.76286510      -0.42786064 
