24
Properties=species:S:1:pos:R:3 2c24 h20 p=T pbc="F F F" h12=T v,=T c6=T o=T s4=T
V      -0.12593043       0.03701750      -0.39216690 
S       1.65265166      -1.55149778      -0.35689530 
S      -1.39696206       1.44887166       1.08326922 
S       1.73637934       1.59388501      -0.15101808 
S      -1.67767339      -1.52167723       0.53627951 
O      -0.58230195       0.26946613      -1.92796083 
C       1.14218985      -3.22060224      -0.91396376 
H       1.51766908      -3.37424413      -1.79485958 
H       1.53576477      -3.87418654      -0.31331468 
C      -0.36105083      -3.48282478      -0.98478082 
H      -0.74837349      -2.91627310      -1.67033847 
H      -0.50905972      -4.40586615      -1.24372452 
C      -1.07021336      -3.22012756       0.33672059 
H      -0.45791760      -3.41742055       1.06147188 
H      -1.82169809      -3.82924420       0.41229818 
C      -0.99537855       3.10094029       0.41911282 
C       1.41183122       2.75018408       1.22508312 
C       0.26492635       3.72446154       0.99997253 
H      -0.89238258       3.03196709      -0.54203962 
H      -1.74316285       3.69490194       0.59188645 
H       1.22263330       2.23142813       2.02428826 
H       2.21875510       3.26044264       1.39509387 
H       0.56788912       4.42437938       0.40194347 
H       0.04226548       4.14013543       1.84629127 
