24
Properties=species:S:1:pos:R:3 2c24 h20 p=T pbc="F F F" h12=T v,=T c6=T o=T s4=T
V       0.12421535      -0.10045648      -0.38144814 
S      -1.05326630      -1.97484783       0.50634304 
S       0.79528330       2.13258954       0.20926208 
S       1.86044496      -0.93448536       1.11524469 
S      -1.89231134       1.11835753      -0.76558445 
O       0.69966685      -0.49495079      -1.84233833 
C      -2.55643854      -2.40304862      -0.44965044 
H      -2.37931085      -3.21839449      -0.94402359 
H      -3.27109538      -2.59498217       0.17906261 
C      -3.05839620      -1.34864767      -1.43442727 
H      -2.40006498      -1.23474663      -2.13771633 
H      -3.87913724      -1.66406394      -1.84413517 
C      -3.32059361      -0.00122885      -0.77563873 
H      -3.60171268      -0.15314919       0.13923139 
H      -4.05282837       0.43422836      -1.24004548 
C       2.61282209       1.98460222       0.12953561 
C       2.49332992       0.42427370       2.15891322 
C       3.26360367       1.50842655       1.41960742 
H       2.84260498       1.36599957      -0.58018973 
H       2.98456519       2.85004509      -0.10421261 
H       1.74158970       0.83732829       2.61487921 
H       3.07232649       0.04609515       2.83872022 
H       4.14883130       1.17179356       1.21379085 
H       3.37079863       2.26862084       2.01056591 
