24
Properties=species:S:1:pos:R:3 2c24 h20 p=T pbc="F F F" h12=T v,=T c6=T o=T s4=T
V      -0.01720022       0.38518208      -0.14954117 
S       0.34475615       0.54439163       2.20239826 
S      -0.29675884      -1.25328148      -1.88823304 
S      -2.28200823      -0.13188012       0.59442000 
S       2.24393767      -0.26117241      -0.56055155 
O      -0.17703821       1.87962713      -0.75125218 
C       1.92822575       1.35733510       2.63662532 
H       1.73031418       2.24181923       2.98171480 
H       2.34142992       0.85178487       3.35532850 
C       2.94833679       1.50347287       1.50900594 
H       2.59216908       2.10582094       0.83720961 
H       3.75828399       1.90119170       1.86505244 
C       3.29734546       0.17534897       0.85130754 
H       3.23096348      -0.52652260       1.51618707 
H       4.21942689       0.21024776       0.55128710 
C      -1.97707811      -0.85390331      -2.47876501 
C      -2.87479575      -1.65714417      -0.21686668 
C      -3.09479666      -1.55229152      -1.71882794 
H      -2.10916015       0.10392621      -2.41321794 
H      -2.04183607      -1.09521325      -3.41652748 
H      -2.23093246      -2.36482740      -0.04876861 
H      -3.71064909      -1.92135693       0.19778306 
H      -3.92249756      -1.07336154      -1.87645873 
H      -3.20172029      -2.44556370      -2.07834180 
