24
Properties=species:S:1:pos:R:3 2c24 h20 p=T pbc="F F F" h12=T v,=T c6=T o=T s4=T
V      -0.17151815      -0.37076525      -0.06432960 
S       1.48870976      -0.63238113       1.62776365 
S      -1.15105624       1.31477557      -1.47330887 
S       1.80493006      -0.30513212      -1.49245132 
S      -1.69361955       0.68236079       1.44351027 
O      -0.80102188      -1.82375301      -0.40125981 
C       0.80329425      -1.18975449       3.23286387 
H       1.05408643      -2.11738358       3.36391920 
H       1.22529068      -0.67314733       3.93847639 
C      -0.71091764      -1.07765880       3.40050982 
H      -1.14314055      -1.68290441       2.77773374 
H      -0.95086290      -1.35450401       4.29870069 
C      -1.22942536       0.33409454       3.16304490 
H      -0.54522584       0.96495952       3.43318456 
H      -2.00397076       0.47971566       3.72902922 
C      -0.72807728       0.67547988      -3.12983947 
C       1.73294369       1.14930798      -2.59491925 
C       0.63361425       1.11537717      -3.64639706 
H      -0.75151397      -0.29299413      -3.10360423 
H      -1.40738956       0.96819504      -3.75807126 
H       1.61192664       1.94337463      -2.04861763 
H       2.58672278       1.23566166      -3.04658051 
H       0.90448517       0.51371127      -4.35628245 
H       0.54702784       2.00025088      -4.03125987 
