24
Properties=species:S:1:pos:R:3 2c24 h20 p=T pbc="F F F" h12=T v,=T c6=T o=T s4=T
V       0.13952591      -0.35005182      -0.17035225 
S       0.06220486       1.30247779      -1.88824239 
S      -0.31156726      -0.62541852       2.17623110 
S      -2.26947574      -0.34824296      -0.55362062 
S       2.09910916       0.60325604       0.80467895 
O       0.59905793      -1.75727023      -0.82574298 
C       1.70583099       1.67590707      -2.60646932 
H       1.74401034       1.28767327      -3.49437967 
H       1.78069113       2.63870016      -2.70785181 
C       2.91884673       1.18382839      -1.81909416 
H       2.91909565       0.21380012      -1.81326014 
H       3.72722717       1.47834551      -2.26713943 
C       2.93693838       1.68983520      -0.38315644 
H       2.51498089       2.56181116      -0.35660762 
H       3.85974601       1.80085906      -0.10465306 
C      -1.61753284      -1.89994421       2.13449391 
C      -3.15598282      -0.17131304       1.03345673 
C      -3.02878447      -1.35163174       1.98527103 
H      -1.43939486      -2.50221253       1.39644295 
H      -1.57130817      -2.41839038       2.95357838 
H      -2.82541897       0.62374475       1.48317119 
H      -4.09667445      -0.02835042       0.84622812 
H      -3.60610828      -2.06413870       1.67167699 
H      -3.34873155      -1.08001846       2.85847098 
