24
Properties=species:S:1:pos:R:3 2c24 h20 p=T pbc="F F F" h12=T v,=T c6=T o=T s4=T
V      -0.37832739      -0.05130272       0.15893413 
S      -0.63794823       0.50637685      -2.14531622 
S       1.33266413      -0.41221675       1.81060431 
S       0.08177734       2.33894397       0.31771475 
S       0.30897136      -2.28044113      -0.34901327 
O      -1.84618593      -0.17250798       0.83099881 
C      -1.45293194      -0.81301098      -3.12093065 
H      -2.35385144      -0.52201844      -3.33125261 
H      -0.97551091      -0.90755842      -3.96115855 
C      -1.53835272      -2.18937946      -2.46379950 
H      -2.11396181      -2.13222831      -1.68508462 
H      -1.94307474      -2.81272074      -3.08718506 
C      -0.17882546      -2.72739993      -2.03893844 
H       0.49214065      -2.39405514      -2.65357718 
H      -0.19084451      -3.69480521      -2.11274175 
C       0.94251546       0.90498698       3.01246209 
C       1.63531250       2.61796161       1.23678558 
C       1.59491263       2.24605274       2.71168685 
H      -0.01859345       1.02665864       3.03786181 
H       1.22449956       0.61381487       3.89423661 
H       2.34146425       2.10575453       0.80943787 
H       1.87221498       3.55544316       1.16330661 
H       1.11491124       2.93820089       3.19110294 
H       2.50209824       2.23150633       3.05142312 
