24
Properties=species:S:1:pos:R:3 2c24 h20 p=T pbc="F F F" h12=T v,=T c6=T o=T s4=T
V       0.16720507      -0.27597460       0.25865832 
S       1.93762016       0.65239459      -1.04201083 
S      -2.21539570      -0.11970949       0.54945049 
S      -0.24413247      -1.48786159      -1.81795388 
S      -0.01917743       1.68948581       1.60092324 
O       0.77918610      -1.42483193       1.22124670 
C       3.18072597       1.54720629      -0.03662226 
H       3.98657373       1.00875770      -0.00126090 
H       3.40417525       2.37318552      -0.49562304 
C       2.77542392       1.89224415       1.39522528 
H       2.66518455       1.07052128       1.89882010 
H       3.48800997       2.40223156       1.81127552 
C       1.48462205       2.69657936       1.46707737 
H       1.41861248       3.24805070       0.67296330 
H       1.53034186       3.28924251       2.23397010 
C      -2.73248235      -1.81692675       0.12075626 
C      -2.00269597      -1.34318085      -2.28969050 
C      -2.98517887      -2.04317084      -1.36231599 
H      -2.04592577      -2.43397928       0.41582528 
H      -3.54448916      -2.02651549       0.60916185 
H      -2.23401551      -0.40050433      -2.32822199 
H      -2.11259449      -1.70525608      -3.18256084 
H      -2.95213288      -2.99531503      -1.54019117 
H      -3.88010717      -1.73794641      -1.57340707 
