24
c6 h12 o s4 v, 2(c24 h20 p)
 V    8.220918   11.601026   23.748077
 S    7.160069    9.485834   23.450518
 S    9.439439   12.862821   25.393934
 S   10.220881   10.243094   23.421955
 S    6.451150   12.413048   25.129377
 O    8.126531   12.427660   22.359287
 C    5.358042    9.617351   23.146860
 H    5.192427    9.415383   22.212864
 H    4.911191    8.935462   23.674311
 C    4.712282   10.964823   23.464384
 H    5.066321   11.635020   22.859007
 H    3.756557   10.901295   23.311029
 C    4.954182   11.413211   24.899208
 H    5.016587   10.627493   25.462988
 H    4.187975   11.928819   25.196764
 C   11.038188   13.094627   24.544245
 C   11.424356   10.570118   24.756390
 C   12.034131   11.964197   24.755836
 H   10.873356   13.188613   23.593889
 H   11.437853   13.922338   24.855669
 H   10.983091   10.427526   25.609962
 H   12.142078    9.921454   24.689280
 H   12.704273   12.007268   24.057005
 H   12.485386   12.104176   25.601645
